data_functionalizedCrystal
_audit_creation_method	'EQeq! by Chris Wilmer'
_symmetry_space_group_name_H-M	'P1'
_symmetry_Int_Tables_number	1
_symmetry_cell_setting	triclinic
loop_
_symmetry_equiv_pos_as_xyz
  x,y,z
_cell_length_a	18.5059
_cell_length_b	18.5059
_cell_length_c	9.9168
_cell_angle_alpha	90
_cell_angle_beta	90
_cell_angle_gamma	120
loop_
_atom_site_label
_atom_site_type_symbol
_atom_site_fract_x
_atom_site_fract_y
_atom_site_fract_z
_atom_site_charge
Mof_C 	C 	0.37251	0.21493	0.33085	0.685
Mof_H 	H 	0.405	0.2157	0.2587	-0.896
Mof_N 	N 	0.4297	0.2187	0.2348	0.812
Mof_H 	H 	0.4593	0.2639	0.1898	-0.135
Mof_H 	H 	0.4352	0.1758	0.2206	-0.191
Mof_N 	N 	0.35905	0.27668	0.35996	-0.334
Mof_C 	C 	0.03918	0.54826	0.66418	0.683
Mof_H 	H 	0.07167	0.54903	0.59203	-0.896
Mof_N 	N 	0.09637	0.55203	0.56813	0.811
Mof_H 	H 	0.12597	0.59723	0.52313	-0.136
Mof_H 	H 	0.10187	0.50913	0.55393	-0.193
Mof_N 	N 	0.02572	0.61001	0.69329	-0.338
Mof_C 	C 	0.70584	0.8816	0.99752	0.688
Mof_H 	H 	0.73833	0.88237	0.92537	-0.899
Mof_N 	N 	0.76303	0.88537	0.90147	0.813
Mof_H 	H 	0.79263	0.93057	0.85647	-0.133
Mof_H 	H 	0.76853	0.84247	0.88727	-0.192
Mof_N 	N 	0.69238	0.94335	0.02663	-0.333
Mof_C 	C 	0.78507	0.15758	0.33085	0.685
Mof_H 	H 	0.7843	0.1893	0.2587	-0.898
Mof_N 	N 	0.7813	0.211	0.2348	0.812
Mof_H 	H 	0.7361	0.1954	0.1898	-0.136
Mof_H 	H 	0.8242	0.2594	0.2206	-0.192
Mof_N 	N 	0.72332	0.08237	0.35996	-0.336
Mof_C 	C 	0.45174	0.49091	0.66418	0.684
Mof_H 	H 	0.45097	0.52263	0.59203	-0.897
Mof_N 	N 	0.44797	0.54433	0.56813	0.811
Mof_H 	H 	0.40277	0.52873	0.52313	-0.136
Mof_H 	H 	0.49087	0.59273	0.55393	-0.192
Mof_N 	N 	0.38999	0.4157	0.69329	-0.335
Mof_C 	C 	0.1184	0.82425	0.99752	0.686
Mof_H 	H 	0.11763	0.85597	0.92537	-0.897
Mof_N 	N 	0.11463	0.87767	0.90147	0.809
Mof_H 	H 	0.06943	0.86207	0.85647	-0.136
Mof_H 	H 	0.15753	0.92607	0.88727	-0.189
Mof_N 	N 	0.05665	0.74904	0.02663	-0.338
Mof_C 	C 	0.84242	0.62749	0.33085	0.685
Mof_H 	H 	0.8107	0.595	0.2587	-0.898
Mof_N 	N 	0.789	0.5703	0.2348	0.811
Mof_H 	H 	0.8046	0.5407	0.1898	-0.136
Mof_H 	H 	0.7406	0.5648	0.2206	-0.192
Mof_N 	N 	0.91763	0.64095	0.35996	-0.333
Mof_C 	C 	0.50909	0.96082	0.66418	0.691
Mof_H 	H 	0.47737	0.92833	0.59203	-0.893
Mof_N 	N 	0.45567	0.90363	0.56813	0.804
Mof_H 	H 	0.47127	0.87403	0.52313	-0.134
Mof_H 	H 	0.40727	0.89813	0.55393	-0.189
Mof_N 	N 	0.5843	0.97428	0.69329	-0.331
Mof_C 	C 	0.17575	0.29416	0.99752	0.683
Mof_H 	H 	0.14403	0.26167	0.92537	-0.895
Mof_N 	N 	0.12233	0.23697	0.90147	0.809
Mof_H 	H 	0.13793	0.20737	0.85647	-0.137
Mof_H 	H 	0.07393	0.23147	0.88727	-0.194
Mof_N 	N 	0.25096	0.30762	0.02663	-0.334
Mof_C 	C 	0.21493	0.37251	0.16915	0.684
Mof_H 	H 	0.2157	0.405	0.2413	-0.897
Mof_N 	N 	0.2187	0.4297	0.2652	0.811
Mof_H 	H 	0.2639	0.4593	0.3102	-0.136
Mof_H 	H 	0.1758	0.4352	0.2794	-0.193
Mof_N 	N 	0.27668	0.35905	0.14004	-0.335
Mof_C 	C 	0.8816	0.70584	0.50248	0.687
Mof_H 	H 	0.88237	0.73833	0.57463	-0.899
Mof_N 	N 	0.88537	0.76303	0.59853	0.813
Mof_H 	H 	0.93057	0.79263	0.64353	-0.133
Mof_H 	H 	0.84247	0.76853	0.61273	-0.192
Mof_N 	N 	0.94335	0.69238	0.47337	-0.332
Mof_C 	C 	0.54826	0.03918	0.83582	0.682
Mof_H 	H 	0.54903	0.07167	0.90797	-0.897
Mof_N 	N 	0.55203	0.09637	0.93187	0.81
Mof_H 	H 	0.59723	0.12597	0.97687	-0.137
Mof_H 	H 	0.50913	0.10187	0.94607	-0.193
Mof_N 	N 	0.61001	0.02572	0.80671	-0.338
Mof_C 	C 	0.15758	0.78507	0.16915	0.685
Mof_H 	H 	0.1893	0.7843	0.2413	-0.898
Mof_N 	N 	0.211	0.7813	0.2652	0.811
Mof_H 	H 	0.1954	0.7361	0.3102	-0.136
Mof_H 	H 	0.2594	0.8242	0.2794	-0.192
Mof_N 	N 	0.08237	0.72332	0.14004	-0.336
Mof_C 	C 	0.82425	0.1184	0.50248	0.685
Mof_H 	H 	0.85597	0.11763	0.57463	-0.898
Mof_N 	N 	0.87767	0.11463	0.59853	0.811
Mof_H 	H 	0.86207	0.06943	0.64353	-0.137
Mof_H 	H 	0.92607	0.15753	0.61273	-0.19
Mof_N 	N 	0.74904	0.05665	0.47337	-0.337
Mof_C 	C 	0.49091	0.45174	0.83582	0.684
Mof_H 	H 	0.52263	0.45097	0.90797	-0.897
Mof_N 	N 	0.54433	0.44797	0.93187	0.811
Mof_H 	H 	0.52873	0.40277	0.97687	-0.136
Mof_H 	H 	0.59273	0.49087	0.94607	-0.192
Mof_N 	N 	0.4157	0.38999	0.80671	-0.335
Mof_C 	C 	0.62749	0.84242	0.16915	0.685
Mof_H 	H 	0.595	0.8107	0.2413	-0.898
Mof_N 	N 	0.5703	0.789	0.2652	0.811
Mof_H 	H 	0.5407	0.8046	0.3102	-0.136
Mof_H 	H 	0.5648	0.7406	0.2794	-0.192
Mof_N 	N 	0.64095	0.91763	0.14004	-0.333
Mof_C 	C 	0.29416	0.17575	0.50248	0.682
Mof_H 	H 	0.26167	0.14403	0.57463	-0.895
Mof_N 	N 	0.23697	0.12233	0.59853	0.809
Mof_H 	H 	0.20737	0.13793	0.64353	-0.137
Mof_H 	H 	0.23147	0.07393	0.61273	-0.195
Mof_N 	N 	0.30762	0.25096	0.47337	-0.334
Mof_C 	C 	0.96082	0.50909	0.83582	0.69
Mof_H 	H 	0.92833	0.47737	0.90797	-0.893
Mof_N 	N 	0.90363	0.45567	0.93187	0.805
Mof_H 	H 	0.87403	0.47127	0.97687	-0.134
Mof_H 	H 	0.89813	0.40727	0.94607	-0.189
Mof_N 	N 	0.97428	0.5843	0.80671	-0.332
Mof_C 	C 	0.62749	0.78507	0.66915	0.685
Mof_H 	H 	0.595	0.7843	0.7413	-0.898
Mof_N 	N 	0.5703	0.7813	0.7652	0.811
Mof_H 	H 	0.5407	0.7361	0.8102	-0.136
Mof_H 	H 	0.5648	0.8242	0.7794	-0.192
Mof_N 	N 	0.64095	0.72332	0.64004	-0.335
Mof_C 	C 	0.29416	0.1184	0.00248	0.683
Mof_H 	H 	0.26167	0.11763	0.07463	-0.895
Mof_N 	N 	0.23697	0.11463	0.09853	0.809
Mof_H 	H 	0.20737	0.06943	0.14353	-0.138
Mof_H 	H 	0.23147	0.15753	0.11273	-0.193
Mof_N 	N 	0.30762	0.05665	0.97337	-0.337
Mof_C 	C 	0.96082	0.45174	0.33582	0.691
Mof_H 	H 	0.92833	0.45097	0.40797	-0.893
Mof_N 	N 	0.90363	0.44797	0.43187	0.804
Mof_H 	H 	0.87403	0.40277	0.47687	-0.134
Mof_H 	H 	0.89813	0.49087	0.44607	-0.189
Mof_N 	N 	0.97428	0.38999	0.30671	-0.331
Mof_C 	C 	0.21493	0.84242	0.66915	0.685
Mof_H 	H 	0.2157	0.8107	0.7413	-0.897
Mof_N 	N 	0.2187	0.789	0.7652	0.811
Mof_H 	H 	0.2639	0.8046	0.8102	-0.136
Mof_H 	H 	0.1758	0.7406	0.7794	-0.193
Mof_N 	N 	0.27668	0.91763	0.64004	-0.333
Mof_C 	C 	0.8816	0.17575	0.00248	0.687
Mof_H 	H 	0.88237	0.14403	0.07463	-0.896
Mof_N 	N 	0.88537	0.12233	0.09853	0.809
Mof_H 	H 	0.93057	0.13793	0.14353	-0.133
Mof_H 	H 	0.84247	0.07393	0.11273	-0.193
Mof_N 	N 	0.94335	0.25096	0.97337	-0.333
Mof_C 	C 	0.54826	0.50909	0.33582	0.684
Mof_H 	H 	0.54903	0.47737	0.40797	-0.897
Mof_N 	N 	0.55203	0.45567	0.43187	0.811
Mof_H 	H 	0.59723	0.47127	0.47687	-0.136
Mof_H 	H 	0.50913	0.40727	0.44607	-0.192
Mof_N 	N 	0.61001	0.5843	0.30671	-0.335
Mof_C 	C 	0.15758	0.37251	0.66915	0.684
Mof_H 	H 	0.1893	0.405	0.7413	-0.897
Mof_N 	N 	0.211	0.4297	0.7652	0.811
Mof_H 	H 	0.1954	0.4593	0.8102	-0.136
Mof_H 	H 	0.2594	0.4352	0.7794	-0.192
Mof_N 	N 	0.08237	0.35905	0.64004	-0.336
Mof_C 	C 	0.82425	0.70584	0.00248	0.687
Mof_H 	H 	0.85597	0.73833	0.07463	-0.899
Mof_N 	N 	0.87767	0.76303	0.09853	0.812
Mof_H 	H 	0.86207	0.79263	0.14353	-0.134
Mof_H 	H 	0.92607	0.76853	0.11273	-0.189
Mof_N 	N 	0.74904	0.69238	0.97337	-0.335
Mof_C 	C 	0.49091	0.03918	0.33582	0.682
Mof_H 	H 	0.52263	0.07167	0.40797	-0.897
Mof_N 	N 	0.54433	0.09637	0.43187	0.811
Mof_H 	H 	0.52873	0.12597	0.47687	-0.136
Mof_H 	H 	0.59273	0.10187	0.44607	-0.193
Mof_N 	N 	0.4157	0.02572	0.30671	-0.338
Mof_C 	C 	0.78507	0.62749	0.83085	0.685
Mof_H 	H 	0.7843	0.595	0.7587	-0.898
Mof_N 	N 	0.7813	0.5703	0.7348	0.811
Mof_H 	H 	0.7361	0.5407	0.6898	-0.136
Mof_H 	H 	0.8242	0.5648	0.7206	-0.192
Mof_N 	N 	0.72332	0.64095	0.85996	-0.335
Mof_C 	C 	0.45174	0.96082	0.16418	0.69
Mof_H 	H 	0.45097	0.92833	0.09203	-0.893
Mof_N 	N 	0.44797	0.90363	0.06813	0.805
Mof_H 	H 	0.40277	0.87403	0.02313	-0.134
Mof_H 	H 	0.49087	0.89813	0.05393	-0.189
Mof_N 	N 	0.38999	0.97428	0.19329	-0.331
Mof_C 	C 	0.1184	0.29416	0.49752	0.682
Mof_H 	H 	0.11763	0.26167	0.42537	-0.896
Mof_N 	N 	0.11463	0.23697	0.40147	0.81
Mof_H 	H 	0.06943	0.20737	0.35647	-0.138
Mof_H 	H 	0.15753	0.23147	0.38727	-0.193
Mof_N 	N 	0.05665	0.30762	0.52663	-0.337
Mof_C 	C 	0.84242	0.21493	0.83085	0.684
Mof_H 	H 	0.8107	0.2157	0.7587	-0.897
Mof_N 	N 	0.789	0.2187	0.7348	0.811
Mof_H 	H 	0.8046	0.2639	0.6898	-0.136
Mof_H 	H 	0.7406	0.1758	0.7206	-0.193
Mof_N 	N 	0.91763	0.27668	0.85996	-0.333
Mof_C 	C 	0.50909	0.54826	0.16418	0.684
Mof_H 	H 	0.47737	0.54903	0.09203	-0.897
Mof_N 	N 	0.45567	0.55203	0.06813	0.811
Mof_H 	H 	0.47127	0.59723	0.02313	-0.136
Mof_H 	H 	0.40727	0.50913	0.05393	-0.192
Mof_N 	N 	0.5843	0.61001	0.19329	-0.335
Mof_C 	C 	0.17575	0.8816	0.49752	0.685
Mof_H 	H 	0.14403	0.88237	0.42537	-0.898
Mof_N 	N 	0.12233	0.88537	0.40147	0.812
Mof_H 	H 	0.13793	0.93057	0.35647	-0.134
Mof_H 	H 	0.07393	0.84247	0.38727	-0.194
Mof_N 	N 	0.25096	0.94335	0.52663	-0.332
Mof_C 	C 	0.37251	0.15758	0.83085	0.684
Mof_H 	H 	0.405	0.1893	0.7587	-0.897
Mof_N 	N 	0.4297	0.211	0.7348	0.811
Mof_H 	H 	0.4593	0.1954	0.6898	-0.136
Mof_H 	H 	0.4352	0.2594	0.7206	-0.192
Mof_N 	N 	0.35905	0.08237	0.85996	-0.336
Mof_C 	C 	0.03918	0.49091	0.16418	0.682
Mof_H 	H 	0.07167	0.52263	0.09203	-0.897
Mof_N 	N 	0.09637	0.54433	0.06813	0.81
Mof_H 	H 	0.12597	0.52873	0.02313	-0.136
Mof_H 	H 	0.10187	0.59273	0.05393	-0.193
Mof_N 	N 	0.02572	0.4157	0.19329	-0.338
Mof_C 	C 	0.70584	0.82425	0.49752	0.687
Mof_H 	H 	0.73833	0.85597	0.42537	-0.899
Mof_N 	N 	0.76303	0.87767	0.40147	0.812
Mof_H 	H 	0.79263	0.86207	0.35647	-0.135
Mof_H 	H 	0.76853	0.92607	0.38727	-0.19
Mof_N 	N 	0.69238	0.74904	0.52663	-0.335
Mof_Zn	Zn	0.37554	0.37554	0.25	1.241
Mof_Zn	Zn	0.0422	0.70887	0.58333	1.24
Mof_Zn	Zn	0.70887	0.0422	0.91667	1.24
Mof_Zn	Zn	0.62446	-2.14569e-33	0.25	1.239
Mof_Zn	Zn	0.29113	0.33333	0.58333	1.241
Mof_Zn	Zn	0.9578	0.66667	0.91667	1.243
Mof_Zn	Zn	2.2247e-17	0.62446	0.25	1.239
Mof_Zn	Zn	0.66667	0.9578	0.58333	1.244
Mof_Zn	Zn	0.33333	0.29113	0.91667	1.241
Mof_Zn	Zn	0.62446	0.62446	0.75	1.241
Mof_Zn	Zn	0.29113	0.9578	0.08333	1.243
Mof_Zn	Zn	0.9578	0.29113	0.41667	1.244
Mof_Zn	Zn	0.37554	0	0.75	1.239
Mof_Zn	Zn	0.0422	0.33333	0.08333	1.24
Mof_Zn	Zn	0.70887	0.66667	0.41667	1.241
Mof_Zn	Zn	2.80877e-17	0.37554	0.75	1.239
Mof_Zn	Zn	0.66667	0.70887	0.08333	1.241
Mof_Zn	Zn	0.33333	0.0422	0.41667	1.24
Mof_F 	F 	0.41223	0.33333	0.08333	-0.651
Mof_F 	F 	0.66667	0.07889	0.08333	-0.652
Mof_F 	F 	0.33333	0.41223	0.41667	-0.651
Mof_F 	F 	0.92111	0.58777	0.08333	-0.648
Mof_F 	F 	0.25444	0.25444	0.75	-0.652
Mof_F 	F 	2.80877e-17	0.74556	0.75	-0.655
Mof_F 	F 	0.07889	0.66667	0.41667	-0.653
Mof_F 	F 	0.74556	0	0.75	-0.656
Mof_F 	F 	0.58777	0.92111	0.41667	-0.649
Mof_F 	F 	0.58777	0.66667	0.91667	-0.651
Mof_F 	F 	0.25444	-2.14569e-33	0.25	-0.656
Mof_F 	F 	0.92111	0.33333	0.58333	-0.649
Mof_F 	F 	0.33333	0.92111	0.91667	-0.648
Mof_F 	F 	-3.57331e-17	0.25444	0.25	-0.656
Mof_F 	F 	0.07889	0.41223	0.91667	-0.653
Mof_F 	F 	0.74556	0.74556	0.25	-0.651
Mof_F 	F 	0.66667	0.58777	0.58333	-0.651
Mof_F 	F 	0.41223	0.07889	0.58333	-0.653
Mof_N 	N 	0.33333	0.1502	0.41667	-0.461
Mof_N 	N 	2.80877e-17	0.48353	0.75	-0.465
Mof_N 	N 	0.8498	0.18314	0.41667	-0.46
Mof_N 	N 	0.51647	0.51647	0.75	-0.461
Mof_N 	N 	0.81686	0.66667	0.41667	-0.461
Mof_N 	N 	0.48353	0	0.75	-0.466
Mof_N 	N 	0.1502	0.33333	0.08333	-0.461
Mof_N 	N 	0.18314	0.8498	0.08333	-0.461
Mof_N 	N 	0.66667	0.81686	0.08333	-0.461
Mof_N 	N 	0.66667	0.8498	0.58333	-0.46
Mof_N 	N 	0.1502	0.81686	0.58333	-0.461
Mof_N 	N 	0.18314	0.33333	0.58333	-0.46
Mof_N 	N 	0.8498	0.66667	0.91667	-0.461
Mof_N 	N 	0.51647	-2.14569e-33	0.25	-0.465
Mof_N 	N 	0.81686	0.1502	0.91667	-0.462
Mof_N 	N 	0.48353	0.48353	0.25	-0.461
Mof_N 	N 	0.33333	0.18314	0.91667	-0.461
Mof_N 	N 	2.2247e-17	0.51647	0.25	-0.466
_end
