# CIF file generated by openbabel 3.1.0, see https://openbabel.org
data_I
_chemical_name_common 'image0'
_cell_length_a 22.7053
_cell_length_b 12.3557
_cell_length_c 8.3931
_cell_angle_alpha 90
_cell_angle_beta 93.878
_cell_angle_gamma 90
_space_group_name_H-M_alt 'P 1'
_space_group_name_Hall 'P 1'
loop_
    _symmetry_equiv_pos_as_xyz
    x,y,z
loop_
    _atom_site_label
    _atom_site_type_symbol
    _atom_site_fract_x
    _atom_site_fract_y
    _atom_site_fract_z
    _atom_site_occupancy
    La1      La       0.80996    0.04108    0.46540    1.000
    O1       O        0.70008    0.08840    0.50650    1.000
    O2       O        0.91620    0.08410    0.53860    1.000
    C1       C        0.66164    0.16710    0.89740    1.000
    H1       H        0.69350    0.12940    0.95940    1.000
    C2       C        0.70101    0.07440    0.65570    1.000
    C3       C        0.60921    0.17330    0.00420    1.000
    H2       H        0.59550    0.10150    0.02510    1.000
    H3       H        0.57780    0.21420    0.95090    1.000
    H4       H        0.62160    0.20790    0.10320    1.000
    C4       C        0.64658    0.09800    0.74670    1.000
    H5       H        0.63400    0.02760    0.78640    1.000
    C5       C        0.97440    0.09740    0.77820    1.000
    H6       H        0.96880    0.08690    0.89200    1.000
    C6       C        0.97960    0.01830    0.77520    1.000
    H7       H        0.97460    0.02970    0.88910    1.000
    C7       C        0.59389    0.13990    0.63950    1.000
    H8       H        0.55890    0.13780    0.69740    1.000
    H9       H        0.58850    0.09510    0.54620    1.000
    H10      H        0.60140    0.21310    0.60800    1.000
    H11      H        0.99710    0.88560    0.86190    1.000
    H12      H        0.02820    0.85000    0.70920    1.000
    H13      H        0.96210    0.88770    0.69440    1.000
    H14      H        0.96940    0.26780    0.75960    1.000
    H15      H        0.01430    0.21910    0.64510    1.000
    H16      H        0.03180    0.22940    0.82830    1.000
    O3       O        0.74725    0.03700    0.73060    1.000
    C8       C        0.68462    0.28090    0.86380    1.000
    O4       O        0.68999    0.34640    0.98060    1.000
    O5       O        0.69867    0.30230    0.72410    1.000
    O6       O        0.87270    0.01470    0.74180    1.000
    C9       C        0.91990    0.03570    0.68200    1.000
    C10      C        0.91650    0.07310    0.67900    1.000
    La2      La       0.30996    0.54108    0.46540    1.000
    O7       O        0.20008    0.58840    0.50650    1.000
    O8       O        0.41620    0.58410    0.53860    1.000
    C11      C        0.16164    0.66710    0.89740    1.000
    H17      H        0.19350    0.62940    0.95940    1.000
    C12      C        0.20101    0.57440    0.65570    1.000
    C13      C        0.10921    0.67330    0.00420    1.000
    H18      H        0.09550    0.60150    0.02510    1.000
    H19      H        0.07780    0.71420    0.95090    1.000
    H20      H        0.12160    0.70790    0.10320    1.000
    C14      C        0.14658    0.59800    0.74670    1.000
    H21      H        0.13400    0.52760    0.78640    1.000
    C15      C        0.47440    0.59740    0.77820    1.000
    H22      H        0.46880    0.58690    0.89200    1.000
    C16      C        0.47960    0.51830    0.77520    1.000
    H23      H        0.47460    0.52970    0.88910    1.000
    C17      C        0.09389    0.63990    0.63950    1.000
    H24      H        0.05890    0.63780    0.69740    1.000
    H25      H        0.08850    0.59510    0.54620    1.000
    H26      H        0.10140    0.71310    0.60800    1.000
    H27      H        0.49710    0.38560    0.86190    1.000
    H28      H        0.52820    0.35000    0.70920    1.000
    H29      H        0.46210    0.38770    0.69440    1.000
    H30      H        0.46940    0.76780    0.75960    1.000
    H31      H        0.51430    0.71910    0.64510    1.000
    H32      H        0.53180    0.72940    0.82830    1.000
    O9       O        0.24725    0.53700    0.73060    1.000
    C18      C        0.18462    0.78090    0.86380    1.000
    O10      O        0.18999    0.84640    0.98060    1.000
    O11      O        0.19867    0.80230    0.72410    1.000
    O12      O        0.37270    0.51470    0.74180    1.000
    C19      C        0.41990    0.53570    0.68200    1.000
    C20      C        0.41650    0.57310    0.67900    1.000
    La3      La       0.19004    0.04108    0.03460    1.000
    O13      O        0.29992    0.08840    0.99350    1.000
    O14      O        0.08380    0.08410    0.96140    1.000
    C21      C        0.33836    0.16710    0.60260    1.000
    H33      H        0.30650    0.12940    0.54060    1.000
    C22      C        0.29899    0.07440    0.84430    1.000
    C23      C        0.39079    0.17330    0.49580    1.000
    H34      H        0.40450    0.10150    0.47490    1.000
    H35      H        0.42220    0.21420    0.54910    1.000
    H36      H        0.37840    0.20790    0.39680    1.000
    C24      C        0.35342    0.09800    0.75330    1.000
    H37      H        0.36600    0.02760    0.71360    1.000
    C25      C        0.02560    0.09740    0.72180    1.000
    H38      H        0.03120    0.08690    0.60800    1.000
    C26      C        0.02040    0.01830    0.72480    1.000
    H39      H        0.02540    0.02970    0.61090    1.000
    C27      C        0.40611    0.13990    0.86050    1.000
    H40      H        0.44110    0.13780    0.80260    1.000
    H41      H        0.41150    0.09510    0.95380    1.000
    H42      H        0.39860    0.21310    0.89200    1.000
    H43      H        0.00290    0.88560    0.63810    1.000
    H44      H        0.97180    0.85000    0.79080    1.000
    H45      H        0.03790    0.88770    0.80560    1.000
    H46      H        0.03060    0.26780    0.74040    1.000
    H47      H        0.98570    0.21910    0.85490    1.000
    H48      H        0.96820    0.22940    0.67170    1.000
    O15      O        0.25275    0.03700    0.76940    1.000
    C28      C        0.31538    0.28090    0.63620    1.000
    O16      O        0.31001    0.34640    0.51940    1.000
    O17      O        0.30133    0.30230    0.77590    1.000
    O18      O        0.12730    0.01470    0.75820    1.000
    C29      C        0.08010    0.03570    0.81800    1.000
    C30      C        0.08350    0.07310    0.82100    1.000
    La4      La       0.69004    0.54108    0.03460    1.000
    O19      O        0.79992    0.58840    0.99350    1.000
    O20      O        0.58380    0.58410    0.96140    1.000
    C31      C        0.83836    0.66710    0.60260    1.000
    H49      H        0.80650    0.62940    0.54060    1.000
    C32      C        0.79899    0.57440    0.84430    1.000
    C33      C        0.89079    0.67330    0.49580    1.000
    H50      H        0.90450    0.60150    0.47490    1.000
    H51      H        0.92220    0.71420    0.54910    1.000
    H52      H        0.87840    0.70790    0.39680    1.000
    C34      C        0.85342    0.59800    0.75330    1.000
    H53      H        0.86600    0.52760    0.71360    1.000
    C35      C        0.52560    0.59740    0.72180    1.000
    H54      H        0.53120    0.58690    0.60800    1.000
    C36      C        0.52040    0.51830    0.72480    1.000
    H55      H        0.52540    0.52970    0.61090    1.000
    C37      C        0.90611    0.63990    0.86050    1.000
    H56      H        0.94110    0.63780    0.80260    1.000
    H57      H        0.91150    0.59510    0.95380    1.000
    H58      H        0.89860    0.71310    0.89200    1.000
    H59      H        0.50290    0.38560    0.63810    1.000
    H60      H        0.47180    0.35000    0.79080    1.000
    H61      H        0.53790    0.38770    0.80560    1.000
    H62      H        0.53060    0.76780    0.74040    1.000
    H63      H        0.48570    0.71910    0.85490    1.000
    H64      H        0.46820    0.72940    0.67170    1.000
    O21      O        0.75275    0.53700    0.76940    1.000
    C38      C        0.81538    0.78090    0.63620    1.000
    O22      O        0.81001    0.84640    0.51940    1.000
    O23      O        0.80133    0.80230    0.77590    1.000
    O24      O        0.62730    0.51470    0.75820    1.000
    C39      C        0.58010    0.53570    0.81800    1.000
    C40      C        0.58350    0.57310    0.82100    1.000
    La5      La       0.19004    0.95892    0.53460    1.000
    O25      O        0.29992    0.91160    0.49350    1.000
    O26      O        0.08380    0.91590    0.46140    1.000
    C41      C        0.33836    0.83290    0.10260    1.000
    H65      H        0.30650    0.87060    0.04060    1.000
    C42      C        0.29899    0.92560    0.34430    1.000
    C43      C        0.39079    0.82670    0.99580    1.000
    H66      H        0.40450    0.89850    0.97490    1.000
    H67      H        0.42220    0.78580    0.04910    1.000
    H68      H        0.37840    0.79210    0.89680    1.000
    C44      C        0.35342    0.90200    0.25330    1.000
    H69      H        0.36600    0.97240    0.21360    1.000
    C45      C        0.02560    0.90260    0.22180    1.000
    H70      H        0.03120    0.91310    0.10800    1.000
    C46      C        0.02040    0.98170    0.22480    1.000
    H71      H        0.02540    0.97030    0.11090    1.000
    C47      C        0.40611    0.86010    0.36050    1.000
    H72      H        0.44110    0.86220    0.30260    1.000
    H73      H        0.41150    0.90490    0.45380    1.000
    H74      H        0.39860    0.78690    0.39200    1.000
    H75      H        0.00290    0.11440    0.13810    1.000
    H76      H        0.97180    0.15000    0.29080    1.000
    H77      H        0.03790    0.11230    0.30560    1.000
    H78      H        0.03060    0.73220    0.24040    1.000
    H79      H        0.98570    0.78090    0.35490    1.000
    H80      H        0.96820    0.77060    0.17170    1.000
    O27      O        0.25275    0.96300    0.26940    1.000
    C48      C        0.31538    0.71910    0.13620    1.000
    O28      O        0.31001    0.65360    0.01940    1.000
    O29      O        0.30133    0.69770    0.27590    1.000
    O30      O        0.12730    0.98530    0.25820    1.000
    C49      C        0.08010    0.96430    0.31800    1.000
    C50      C        0.08350    0.92690    0.32100    1.000
    La6      La       0.69004    0.45892    0.53460    1.000
    O31      O        0.79992    0.41160    0.49350    1.000
    O32      O        0.58380    0.41590    0.46140    1.000
    C51      C        0.83836    0.33290    0.10260    1.000
    H81      H        0.80650    0.37060    0.04060    1.000
    C52      C        0.79899    0.42560    0.34430    1.000
    C53      C        0.89079    0.32670    0.99580    1.000
    H82      H        0.90450    0.39850    0.97490    1.000
    H83      H        0.92220    0.28580    0.04910    1.000
    H84      H        0.87840    0.29210    0.89680    1.000
    C54      C        0.85342    0.40200    0.25330    1.000
    H85      H        0.86600    0.47240    0.21360    1.000
    C55      C        0.52560    0.40260    0.22180    1.000
    H86      H        0.53120    0.41310    0.10800    1.000
    C56      C        0.52040    0.48170    0.22480    1.000
    H87      H        0.52540    0.47030    0.11090    1.000
    C57      C        0.90611    0.36010    0.36050    1.000
    H88      H        0.94110    0.36220    0.30260    1.000
    H89      H        0.91150    0.40490    0.45380    1.000
    H90      H        0.89860    0.28690    0.39200    1.000
    H91      H        0.50290    0.61440    0.13810    1.000
    H92      H        0.47180    0.65000    0.29080    1.000
    H93      H        0.53790    0.61230    0.30560    1.000
    H94      H        0.53060    0.23220    0.24040    1.000
    H95      H        0.48570    0.28090    0.35490    1.000
    H96      H        0.46820    0.27060    0.17170    1.000
    O33      O        0.75275    0.46300    0.26940    1.000
    C58      C        0.81538    0.21910    0.13620    1.000
    O34      O        0.81001    0.15360    0.01940    1.000
    O35      O        0.80133    0.19770    0.27590    1.000
    O36      O        0.62730    0.48530    0.25820    1.000
    C59      C        0.58010    0.46430    0.31800    1.000
    C60      C        0.58350    0.42690    0.32100    1.000
    La7      La       0.80996    0.95892    0.96540    1.000
    O37      O        0.70008    0.91160    0.00650    1.000
    O38      O        0.91620    0.91590    0.03860    1.000
    C61      C        0.66164    0.83290    0.39740    1.000
    H97      H        0.69350    0.87060    0.45940    1.000
    C62      C        0.70101    0.92560    0.15570    1.000
    C63      C        0.60921    0.82670    0.50420    1.000
    H98      H        0.59550    0.89850    0.52510    1.000
    H99      H        0.57780    0.78580    0.45090    1.000
    H100     H        0.62160    0.79210    0.60320    1.000
    C64      C        0.64658    0.90200    0.24670    1.000
    H101     H        0.63400    0.97240    0.28640    1.000
    C65      C        0.97440    0.90260    0.27820    1.000
    H102     H        0.96880    0.91310    0.39200    1.000
    C66      C        0.97960    0.98170    0.27520    1.000
    H103     H        0.97460    0.97030    0.38910    1.000
    C67      C        0.59389    0.86010    0.13950    1.000
    H104     H        0.55890    0.86220    0.19740    1.000
    H105     H        0.58850    0.90490    0.04620    1.000
    H106     H        0.60140    0.78690    0.10800    1.000
    H107     H        0.99710    0.11440    0.36190    1.000
    H108     H        0.02820    0.15000    0.20920    1.000
    H109     H        0.96210    0.11230    0.19440    1.000
    H110     H        0.96940    0.73220    0.25960    1.000
    H111     H        0.01430    0.78090    0.14510    1.000
    H112     H        0.03180    0.77060    0.32830    1.000
    O39      O        0.74725    0.96300    0.23060    1.000
    C68      C        0.68462    0.71910    0.36380    1.000
    O40      O        0.68999    0.65360    0.48060    1.000
    O41      O        0.69867    0.69770    0.22410    1.000
    O42      O        0.87270    0.98530    0.24180    1.000
    C69      C        0.91990    0.96430    0.18200    1.000
    C70      C        0.91650    0.92690    0.17900    1.000
    La8      La       0.30996    0.45892    0.96540    1.000
    O43      O        0.20008    0.41160    0.00650    1.000
    O44      O        0.41620    0.41590    0.03860    1.000
    C71      C        0.16164    0.33290    0.39740    1.000
    H113     H        0.19350    0.37060    0.45940    1.000
    C72      C        0.20101    0.42560    0.15570    1.000
    C73      C        0.10921    0.32670    0.50420    1.000
    H114     H        0.09550    0.39850    0.52510    1.000
    H115     H        0.07780    0.28580    0.45090    1.000
    H116     H        0.12160    0.29210    0.60320    1.000
    C74      C        0.14658    0.40200    0.24670    1.000
    H117     H        0.13400    0.47240    0.28640    1.000
    C75      C        0.47440    0.40260    0.27820    1.000
    H118     H        0.46880    0.41310    0.39200    1.000
    C76      C        0.47960    0.48170    0.27520    1.000
    H119     H        0.47460    0.47030    0.38910    1.000
    C77      C        0.09389    0.36010    0.13950    1.000
    H120     H        0.05890    0.36220    0.19740    1.000
    H121     H        0.08850    0.40490    0.04620    1.000
    H122     H        0.10140    0.28690    0.10800    1.000
    H123     H        0.49710    0.61440    0.36190    1.000
    H124     H        0.52820    0.65000    0.20920    1.000
    H125     H        0.46210    0.61230    0.19440    1.000
    H126     H        0.46940    0.23220    0.25960    1.000
    H127     H        0.51430    0.28090    0.14510    1.000
    H128     H        0.53180    0.27060    0.32830    1.000
    O45      O        0.24725    0.46300    0.23060    1.000
    C78      C        0.18462    0.21910    0.36380    1.000
    O46      O        0.18999    0.15360    0.48060    1.000
    O47      O        0.19867    0.19770    0.22410    1.000
    O48      O        0.37270    0.48530    0.24180    1.000
    C79      C        0.41990    0.46430    0.18200    1.000
    C80      C        0.41650    0.42690    0.17900    1.000
    C81      C        0.00000    0.89890    0.75000    1.000
    C82      C        0.00000    0.21510    0.75000    1.000
    C83      C        0.50000    0.39890    0.75000    1.000
    C84      C        0.50000    0.71510    0.75000    1.000
    C85      C        0.00000    0.10110    0.25000    1.000
    C86      C        0.00000    0.78490    0.25000    1.000
    C87      C        0.50000    0.60110    0.25000    1.000
    C88      C        0.50000    0.28490    0.25000    1.000
