data_functionalizedCrystal
_audit_creation_method	'EQeq! by Chris Wilmer'
_symmetry_space_group_name_H-M	'P1'
_symmetry_Int_Tables_number	1
_symmetry_cell_setting	triclinic
loop_
_symmetry_equiv_pos_as_xyz
  x,y,z
_cell_length_a	22.3869
_cell_length_b	22.3869
_cell_length_c	22.3869
_cell_angle_alpha	90
_cell_angle_beta	90
_cell_angle_gamma	90
loop_
_atom_site_label
_atom_site_type_symbol
_atom_site_fract_x
_atom_site_fract_y
_atom_site_fract_z
_atom_site_charge
Mof_Cu	Cu	0.33754	0.08262	0.74408	0.872
Mof_Cu	Cu	0.33001	0.95919	0.70532	0.849
Mof_Cu	Cu	0.16246	0.91738	0.24408	0.871
Mof_Cu	Cu	0.16999	0.04081	0.20532	0.849
Mof_Cu	Cu	0.66246	0.58262	0.75592	0.871
Mof_Cu	Cu	0.66999	0.45919	0.79468	0.849
Mof_Cu	Cu	0.83754	0.41738	0.25592	0.871
Mof_Cu	Cu	0.83001	0.54081	0.29468	0.849
Mof_Cu	Cu	0.74408	0.33754	0.08262	0.871
Mof_Cu	Cu	0.70532	0.33001	0.95919	0.849
Mof_Cu	Cu	0.24408	0.16246	0.91738	0.871
Mof_Cu	Cu	0.20532	0.16999	0.04081	0.849
Mof_Cu	Cu	0.75592	0.66246	0.58262	0.871
Mof_Cu	Cu	0.79468	0.66999	0.45919	0.849
Mof_Cu	Cu	0.25592	0.83754	0.41738	0.871
Mof_Cu	Cu	0.29468	0.83001	0.54081	0.849
Mof_Cu	Cu	0.08262	0.74408	0.33754	0.871
Mof_Cu	Cu	0.95919	0.70532	0.33001	0.849
Mof_Cu	Cu	0.91738	0.24408	0.16246	0.871
Mof_Cu	Cu	0.04081	0.20532	0.16999	0.849
Mof_Cu	Cu	0.58262	0.75592	0.66246	0.871
Mof_Cu	Cu	0.45919	0.79468	0.66999	0.849
Mof_Cu	Cu	0.41738	0.25592	0.83754	0.871
Mof_Cu	Cu	0.54081	0.29468	0.83001	0.849
Mof_H 	H 	0.6248	0.068	0.5892	0.228
Mof_H 	H 	0.4697	0.1867	0.739	0.016
Mof_H 	H 	0.4457	0.9891	0.6099	0.058
Mof_H 	H 	0.5411	0.0101	0.5745	0.08
Mof_H 	H 	0.5451	0.1591	0.673	0.09
Mof_H 	H 	0.0918	0.0793	0.539	0.218
Mof_H 	H 	0.2368	0.9459	0.5657	-0.015
Mof_H 	H 	0.2068	0.1147	0.7302	0.057
Mof_H 	H 	0.1302	0.149	0.669	0.084
Mof_H 	H 	0.1605	0.0129	0.5536	0.062
Mof_H 	H 	0.8752	0.932	0.0892	0.228
Mof_H 	H 	0.0303	0.8133	0.239	0.016
Mof_H 	H 	0.0543	0.0109	0.1099	0.056
Mof_H 	H 	0.9589	0.9899	0.0745	0.081
Mof_H 	H 	0.9549	0.8409	0.173	0.09
Mof_H 	H 	0.4082	0.9207	0.039	0.219
Mof_H 	H 	0.2632	0.0541	0.0657	-0.015
Mof_H 	H 	0.2932	0.8853	0.2302	0.057
Mof_H 	H 	0.3698	0.851	0.169	0.084
Mof_H 	H 	0.3395	0.9871	0.0536	0.063
Mof_H 	H 	0.3752	0.568	0.9108	0.228
Mof_H 	H 	0.5303	0.6867	0.761	0.016
Mof_H 	H 	0.5543	0.4891	0.8901	0.058
Mof_H 	H 	0.4589	0.5101	0.9255	0.08
Mof_H 	H 	0.4549	0.6591	0.827	0.09
Mof_H 	H 	0.9082	0.5793	0.961	0.218
Mof_H 	H 	0.7632	0.4459	0.9343	-0.015
Mof_H 	H 	0.7932	0.6147	0.7698	0.057
Mof_H 	H 	0.8698	0.649	0.831	0.084
Mof_H 	H 	0.8395	0.5129	0.9464	0.062
Mof_H 	H 	0.1248	0.432	0.4108	0.228
Mof_H 	H 	0.9697	0.3133	0.261	0.016
Mof_H 	H 	0.9457	0.5109	0.3901	0.058
Mof_H 	H 	0.0411	0.4899	0.4255	0.08
Mof_H 	H 	0.0451	0.3409	0.327	0.09
Mof_H 	H 	0.5918	0.4207	0.461	0.219
Mof_H 	H 	0.7368	0.5541	0.4343	-0.015
Mof_H 	H 	0.7068	0.3853	0.2698	0.057
Mof_H 	H 	0.6302	0.351	0.331	0.084
Mof_H 	H 	0.6605	0.4871	0.4464	0.062
Mof_H 	H 	0.5892	0.6248	0.068	0.228
Mof_H 	H 	0.739	0.4697	0.1867	0.016
Mof_H 	H 	0.6099	0.4457	0.9891	0.058
Mof_H 	H 	0.5745	0.5411	0.0101	0.08
Mof_H 	H 	0.673	0.5451	0.1591	0.09
Mof_H 	H 	0.539	0.0918	0.0793	0.218
Mof_H 	H 	0.5657	0.2368	0.9459	-0.015
Mof_H 	H 	0.7302	0.2068	0.1147	0.057
Mof_H 	H 	0.669	0.1302	0.149	0.084
Mof_H 	H 	0.5536	0.1605	0.0129	0.062
Mof_H 	H 	0.0892	0.8752	0.932	0.228
Mof_H 	H 	0.239	0.0303	0.8133	0.016
Mof_H 	H 	0.1099	0.0543	0.0109	0.056
Mof_H 	H 	0.0745	0.9589	0.9899	0.081
Mof_H 	H 	0.173	0.9549	0.8409	0.09
Mof_H 	H 	0.039	0.4082	0.9207	0.219
Mof_H 	H 	0.0657	0.2632	0.0541	-0.015
Mof_H 	H 	0.2302	0.2932	0.8853	0.057
Mof_H 	H 	0.169	0.3698	0.851	0.084
Mof_H 	H 	0.0536	0.3395	0.9871	0.063
Mof_H 	H 	0.9108	0.3752	0.568	0.228
Mof_H 	H 	0.761	0.5303	0.6867	0.016
Mof_H 	H 	0.8901	0.5543	0.4891	0.058
Mof_H 	H 	0.9255	0.4589	0.5101	0.08
Mof_H 	H 	0.827	0.4549	0.6591	0.09
Mof_H 	H 	0.961	0.9082	0.5793	0.218
Mof_H 	H 	0.9343	0.7632	0.4459	-0.015
Mof_H 	H 	0.7698	0.7932	0.6147	0.057
Mof_H 	H 	0.831	0.8698	0.649	0.084
Mof_H 	H 	0.9464	0.8395	0.5129	0.062
Mof_H 	H 	0.4108	0.1248	0.432	0.228
Mof_H 	H 	0.261	0.9697	0.3133	0.016
Mof_H 	H 	0.3901	0.9457	0.5109	0.058
Mof_H 	H 	0.4255	0.0411	0.4899	0.08
Mof_H 	H 	0.327	0.0451	0.3409	0.09
Mof_H 	H 	0.461	0.5918	0.4207	0.219
Mof_H 	H 	0.4343	0.7368	0.5541	-0.015
Mof_H 	H 	0.2698	0.7068	0.3853	0.057
Mof_H 	H 	0.331	0.6302	0.351	0.084
Mof_H 	H 	0.4464	0.6605	0.4871	0.062
Mof_H 	H 	0.068	0.5892	0.6248	0.228
Mof_H 	H 	0.1867	0.739	0.4697	0.016
Mof_H 	H 	0.9891	0.6099	0.4457	0.058
Mof_H 	H 	0.0101	0.5745	0.5411	0.08
Mof_H 	H 	0.1591	0.673	0.5451	0.09
Mof_H 	H 	0.0793	0.539	0.0918	0.218
Mof_H 	H 	0.9459	0.5657	0.2368	-0.015
Mof_H 	H 	0.1147	0.7302	0.2068	0.057
Mof_H 	H 	0.149	0.669	0.1302	0.084
Mof_H 	H 	0.0129	0.5536	0.1605	0.062
Mof_H 	H 	0.932	0.0892	0.8752	0.228
Mof_H 	H 	0.8133	0.239	0.0303	0.016
Mof_H 	H 	0.0109	0.1099	0.0543	0.056
Mof_H 	H 	0.9899	0.0745	0.9589	0.081
Mof_H 	H 	0.8409	0.173	0.9549	0.09
Mof_H 	H 	0.9207	0.039	0.4082	0.219
Mof_H 	H 	0.0541	0.0657	0.2632	-0.015
Mof_H 	H 	0.8853	0.2302	0.2932	0.057
Mof_H 	H 	0.851	0.169	0.3698	0.084
Mof_H 	H 	0.9871	0.0536	0.3395	0.063
Mof_H 	H 	0.568	0.9108	0.3752	0.228
Mof_H 	H 	0.6867	0.761	0.5303	0.016
Mof_H 	H 	0.4891	0.8901	0.5543	0.058
Mof_H 	H 	0.5101	0.9255	0.4589	0.08
Mof_H 	H 	0.6591	0.827	0.4549	0.09
Mof_H 	H 	0.5793	0.961	0.9082	0.218
Mof_H 	H 	0.4459	0.9343	0.7632	-0.015
Mof_H 	H 	0.6147	0.7698	0.7932	0.057
Mof_H 	H 	0.649	0.831	0.8698	0.084
Mof_H 	H 	0.5129	0.9464	0.8395	0.062
Mof_H 	H 	0.432	0.4108	0.1248	0.228
Mof_H 	H 	0.3133	0.261	0.9697	0.016
Mof_H 	H 	0.5109	0.3901	0.9457	0.058
Mof_H 	H 	0.4899	0.4255	0.0411	0.08
Mof_H 	H 	0.3409	0.327	0.0451	0.09
Mof_H 	H 	0.4207	0.461	0.5918	0.219
Mof_H 	H 	0.5541	0.4343	0.7368	-0.015
Mof_H 	H 	0.3853	0.2698	0.7068	0.057
Mof_H 	H 	0.351	0.331	0.6302	0.084
Mof_H 	H 	0.4871	0.4464	0.6605	0.062
Mof_C 	C 	0.446	0.153	0.7291	-0.015
Mof_C 	C 	0.4678	0.1131	0.6848	-0.032
Mof_C 	C 	0.4376	0.0596	0.6657	0.159
Mof_C 	C 	0.4658	0.0237	0.624	-0.086
Mof_C 	C 	0.5223	0.0363	0.6021	-0.142
Mof_C 	C 	0.5509	0.0878	0.6212	0.228
Mof_C 	C 	0.5244	0.1241	0.6607	-0.168
Mof_C 	C 	0.2496	0.962	0.6028	0.021
Mof_C 	C 	0.2191	0.0138	0.6251	-0.059
Mof_C 	C 	0.2321	0.0428	0.6798	0.182
Mof_C 	C 	0.1981	0.0938	0.6943	-0.114
Mof_C 	C 	0.1522	0.1145	0.6579	-0.117
Mof_C 	C 	0.1386	0.0846	0.6052	0.219
Mof_C 	C 	0.1708	0.0341	0.5889	-0.148
Mof_C 	C 	0.054	0.847	0.2291	-0.016
Mof_C 	C 	0.0322	0.8869	0.1848	-0.03
Mof_C 	C 	0.0624	0.9404	0.1657	0.157
Mof_C 	C 	0.0342	0.9763	0.124	-0.083
Mof_C 	C 	0.9777	0.9637	0.1021	-0.145
Mof_C 	C 	0.9491	0.9122	0.1212	0.229
Mof_C 	C 	0.9756	0.8759	0.1607	-0.17
Mof_C 	C 	0.2504	0.038	0.1028	0.02
Mof_C 	C 	0.2809	0.9862	0.1251	-0.058
Mof_C 	C 	0.2679	0.9572	0.1798	0.181
Mof_C 	C 	0.3019	0.9062	0.1943	-0.114
Mof_C 	C 	0.3478	0.8855	0.1579	-0.117
Mof_C 	C 	0.3614	0.9154	0.1052	0.22
Mof_C 	C 	0.3292	0.9659	0.0889	-0.149
Mof_C 	C 	0.554	0.653	0.7709	-0.015
Mof_C 	C 	0.5322	0.6131	0.8152	-0.032
Mof_C 	C 	0.5624	0.5596	0.8343	0.159
Mof_C 	C 	0.5342	0.5237	0.876	-0.087
Mof_C 	C 	0.4777	0.5363	0.8979	-0.142
Mof_C 	C 	0.4491	0.5878	0.8788	0.227
Mof_C 	C 	0.4756	0.6241	0.8393	-0.168
Mof_C 	C 	0.7504	0.462	0.8972	0.021
Mof_C 	C 	0.7809	0.5138	0.8749	-0.059
Mof_C 	C 	0.7679	0.5428	0.8202	0.182
Mof_C 	C 	0.8019	0.5938	0.8057	-0.114
Mof_C 	C 	0.8478	0.6145	0.8421	-0.117
Mof_C 	C 	0.8614	0.5846	0.8948	0.219
Mof_C 	C 	0.8292	0.5341	0.9111	-0.148
Mof_C 	C 	0.946	0.347	0.2709	-0.015
Mof_C 	C 	0.9678	0.3869	0.3152	-0.032
Mof_C 	C 	0.9376	0.4404	0.3343	0.159
Mof_C 	C 	0.9658	0.4763	0.376	-0.087
Mof_C 	C 	0.0223	0.4637	0.3979	-0.142
Mof_C 	C 	0.0509	0.4122	0.3788	0.228
Mof_C 	C 	0.0244	0.3759	0.3393	-0.168
Mof_C 	C 	0.7496	0.538	0.3972	0.021
Mof_C 	C 	0.7191	0.4862	0.3749	-0.059
Mof_C 	C 	0.7321	0.4572	0.3202	0.182
Mof_C 	C 	0.6981	0.4062	0.3057	-0.114
Mof_C 	C 	0.6522	0.3855	0.3421	-0.117
Mof_C 	C 	0.6386	0.4154	0.3948	0.219
Mof_C 	C 	0.6708	0.4659	0.4111	-0.148
Mof_C 	C 	0.7291	0.446	0.153	-0.015
Mof_C 	C 	0.6848	0.4678	0.1131	-0.032
Mof_C 	C 	0.6657	0.4376	0.0596	0.159
Mof_C 	C 	0.624	0.4658	0.0237	-0.086
Mof_C 	C 	0.6021	0.5223	0.0363	-0.142
Mof_C 	C 	0.6212	0.5509	0.0878	0.228
Mof_C 	C 	0.6607	0.5244	0.1241	-0.168
Mof_C 	C 	0.6028	0.2496	0.962	0.021
Mof_C 	C 	0.6251	0.2191	0.0138	-0.059
Mof_C 	C 	0.6798	0.2321	0.0428	0.182
Mof_C 	C 	0.6943	0.1981	0.0938	-0.114
Mof_C 	C 	0.6579	0.1522	0.1145	-0.117
Mof_C 	C 	0.6052	0.1386	0.0846	0.219
Mof_C 	C 	0.5889	0.1708	0.0341	-0.148
Mof_C 	C 	0.2291	0.054	0.847	-0.016
Mof_C 	C 	0.1848	0.0322	0.8869	-0.03
Mof_C 	C 	0.1657	0.0624	0.9404	0.157
Mof_C 	C 	0.124	0.0342	0.9763	-0.083
Mof_C 	C 	0.1021	0.9777	0.9637	-0.145
Mof_C 	C 	0.1212	0.9491	0.9122	0.229
Mof_C 	C 	0.1607	0.9756	0.8759	-0.17
Mof_C 	C 	0.1028	0.2504	0.038	0.02
Mof_C 	C 	0.1251	0.2809	0.9862	-0.058
Mof_C 	C 	0.1798	0.2679	0.9572	0.181
Mof_C 	C 	0.1943	0.3019	0.9062	-0.114
Mof_C 	C 	0.1579	0.3478	0.8855	-0.117
Mof_C 	C 	0.1052	0.3614	0.9154	0.22
Mof_C 	C 	0.0889	0.3292	0.9659	-0.149
Mof_C 	C 	0.7709	0.554	0.653	-0.015
Mof_C 	C 	0.8152	0.5322	0.6131	-0.032
Mof_C 	C 	0.8343	0.5624	0.5596	0.159
Mof_C 	C 	0.876	0.5342	0.5237	-0.087
Mof_C 	C 	0.8979	0.4777	0.5363	-0.142
Mof_C 	C 	0.8788	0.4491	0.5878	0.227
Mof_C 	C 	0.8393	0.4756	0.6241	-0.168
Mof_C 	C 	0.8972	0.7504	0.462	0.021
Mof_C 	C 	0.8749	0.7809	0.5138	-0.059
Mof_C 	C 	0.8202	0.7679	0.5428	0.182
Mof_C 	C 	0.8057	0.8019	0.5938	-0.114
Mof_C 	C 	0.8421	0.8478	0.6145	-0.117
Mof_C 	C 	0.8948	0.8614	0.5846	0.219
Mof_C 	C 	0.9111	0.8292	0.5341	-0.148
Mof_C 	C 	0.2709	0.946	0.347	-0.015
Mof_C 	C 	0.3152	0.9678	0.3869	-0.032
Mof_C 	C 	0.3343	0.9376	0.4404	0.159
Mof_C 	C 	0.376	0.9658	0.4763	-0.087
Mof_C 	C 	0.3979	0.0223	0.4637	-0.142
Mof_C 	C 	0.3788	0.0509	0.4122	0.228
Mof_C 	C 	0.3393	0.0244	0.3759	-0.168
Mof_C 	C 	0.3972	0.7496	0.538	0.021
Mof_C 	C 	0.3749	0.7191	0.4862	-0.059
Mof_C 	C 	0.3202	0.7321	0.4572	0.182
Mof_C 	C 	0.3057	0.6981	0.4062	-0.114
Mof_C 	C 	0.3421	0.6522	0.3855	-0.117
Mof_C 	C 	0.3948	0.6386	0.4154	0.219
Mof_C 	C 	0.4111	0.6708	0.4659	-0.148
Mof_C 	C 	0.153	0.7291	0.446	-0.015
Mof_C 	C 	0.1131	0.6848	0.4678	-0.032
Mof_C 	C 	0.0596	0.6657	0.4376	0.159
Mof_C 	C 	0.0237	0.624	0.4658	-0.086
Mof_C 	C 	0.0363	0.6021	0.5223	-0.142
Mof_C 	C 	0.0878	0.6212	0.5509	0.228
Mof_C 	C 	0.1241	0.6607	0.5244	-0.168
Mof_C 	C 	0.962	0.6028	0.2496	0.021
Mof_C 	C 	0.0138	0.6251	0.2191	-0.059
Mof_C 	C 	0.0428	0.6798	0.2321	0.182
Mof_C 	C 	0.0938	0.6943	0.1981	-0.114
Mof_C 	C 	0.1145	0.6579	0.1522	-0.117
Mof_C 	C 	0.0846	0.6052	0.1386	0.219
Mof_C 	C 	0.0341	0.5889	0.1708	-0.148
Mof_C 	C 	0.847	0.2291	0.054	-0.016
Mof_C 	C 	0.8869	0.1848	0.0322	-0.03
Mof_C 	C 	0.9404	0.1657	0.0624	0.157
Mof_C 	C 	0.9763	0.124	0.0342	-0.083
Mof_C 	C 	0.9637	0.1021	0.9777	-0.145
Mof_C 	C 	0.9122	0.1212	0.9491	0.229
Mof_C 	C 	0.8759	0.1607	0.9756	-0.17
Mof_C 	C 	0.038	0.1028	0.2504	0.02
Mof_C 	C 	0.9862	0.1251	0.2809	-0.058
Mof_C 	C 	0.9572	0.1798	0.2679	0.181
Mof_C 	C 	0.9062	0.1943	0.3019	-0.114
Mof_C 	C 	0.8855	0.1579	0.3478	-0.117
Mof_C 	C 	0.9154	0.1052	0.3614	0.22
Mof_C 	C 	0.9659	0.0889	0.3292	-0.149
Mof_C 	C 	0.653	0.7709	0.554	-0.015
Mof_C 	C 	0.6131	0.8152	0.5322	-0.032
Mof_C 	C 	0.5596	0.8343	0.5624	0.159
Mof_C 	C 	0.5237	0.876	0.5342	-0.087
Mof_C 	C 	0.5363	0.8979	0.4777	-0.142
Mof_C 	C 	0.5878	0.8788	0.4491	0.227
Mof_C 	C 	0.6241	0.8393	0.4756	-0.168
Mof_C 	C 	0.462	0.8972	0.7504	0.021
Mof_C 	C 	0.5138	0.8749	0.7809	-0.059
Mof_C 	C 	0.5428	0.8202	0.7679	0.182
Mof_C 	C 	0.5938	0.8057	0.8019	-0.114
Mof_C 	C 	0.6145	0.8421	0.8478	-0.117
Mof_C 	C 	0.5846	0.8948	0.8614	0.219
Mof_C 	C 	0.5341	0.9111	0.8292	-0.148
Mof_C 	C 	0.347	0.2709	0.946	-0.015
Mof_C 	C 	0.3869	0.3152	0.9678	-0.032
Mof_C 	C 	0.4404	0.3343	0.9376	0.159
Mof_C 	C 	0.4763	0.376	0.9658	-0.087
Mof_C 	C 	0.4637	0.3979	0.0223	-0.142
Mof_C 	C 	0.4122	0.3788	0.0509	0.228
Mof_C 	C 	0.3759	0.3393	0.0244	-0.168
Mof_C 	C 	0.538	0.3972	0.7496	0.021
Mof_C 	C 	0.4862	0.3749	0.7191	-0.059
Mof_C 	C 	0.4572	0.3202	0.7321	0.182
Mof_C 	C 	0.4062	0.3057	0.6981	-0.114
Mof_C 	C 	0.3855	0.3421	0.6522	-0.117
Mof_C 	C 	0.4154	0.3948	0.6386	0.219
Mof_C 	C 	0.4659	0.4111	0.6708	-0.148
Mof_C 	C 	0.3297	0.1703	0.8297	0.097
Mof_C 	C 	0.1703	0.8297	0.3297	0.097
Mof_C 	C 	0.6703	0.6703	0.6703	0.097
Mof_C 	C 	0.8297	0.3297	0.1703	0.097
Mof_C 	C 	0.3663	0.8663	0.6337	0.103
Mof_C 	C 	0.1337	0.1337	0.1337	0.103
Mof_C 	C 	0.6337	0.3663	0.8663	0.103
Mof_C 	C 	0.8663	0.6337	0.3663	0.103
Mof_N 	N 	0.379	0.187	0.8008	-0.226
Mof_N 	N 	0.3945	0.1459	0.7573	-0.198
Mof_N 	N 	0.3186	0.8855	0.6037	-0.228
Mof_N 	N 	0.2933	0.9359	0.63	-0.199
Mof_N 	N 	0.121	0.813	0.3008	-0.226
Mof_N 	N 	0.1055	0.8541	0.2573	-0.198
Mof_N 	N 	0.1814	0.1145	0.1037	-0.228
Mof_N 	N 	0.2067	0.0641	0.13	-0.199
Mof_N 	N 	0.621	0.687	0.6992	-0.226
Mof_N 	N 	0.6055	0.6459	0.7427	-0.198
Mof_N 	N 	0.6814	0.3855	0.8963	-0.228
Mof_N 	N 	0.7067	0.4359	0.87	-0.199
Mof_N 	N 	0.879	0.313	0.1992	-0.226
Mof_N 	N 	0.8945	0.3541	0.2427	-0.198
Mof_N 	N 	0.8186	0.6145	0.3963	-0.228
Mof_N 	N 	0.7933	0.5641	0.37	-0.199
Mof_N 	N 	0.8008	0.379	0.187	-0.226
Mof_N 	N 	0.7573	0.3945	0.1459	-0.198
Mof_N 	N 	0.6037	0.3186	0.8855	-0.228
Mof_N 	N 	0.63	0.2933	0.9359	-0.199
Mof_N 	N 	0.3008	0.121	0.813	-0.226
Mof_N 	N 	0.2573	0.1055	0.8541	-0.198
Mof_N 	N 	0.1037	0.1814	0.1145	-0.228
Mof_N 	N 	0.13	0.2067	0.0641	-0.199
Mof_N 	N 	0.6992	0.621	0.687	-0.226
Mof_N 	N 	0.7427	0.6055	0.6459	-0.198
Mof_N 	N 	0.8963	0.6814	0.3855	-0.228
Mof_N 	N 	0.87	0.7067	0.4359	-0.199
Mof_N 	N 	0.1992	0.879	0.313	-0.226
Mof_N 	N 	0.2427	0.8945	0.3541	-0.198
Mof_N 	N 	0.3963	0.8186	0.6145	-0.228
Mof_N 	N 	0.37	0.7933	0.5641	-0.199
Mof_N 	N 	0.187	0.8008	0.379	-0.226
Mof_N 	N 	0.1459	0.7573	0.3945	-0.198
Mof_N 	N 	0.8855	0.6037	0.3186	-0.228
Mof_N 	N 	0.9359	0.63	0.2933	-0.199
Mof_N 	N 	0.813	0.3008	0.121	-0.226
Mof_N 	N 	0.8541	0.2573	0.1055	-0.198
Mof_N 	N 	0.1145	0.1037	0.1814	-0.228
Mof_N 	N 	0.0641	0.13	0.2067	-0.199
Mof_N 	N 	0.687	0.6992	0.621	-0.226
Mof_N 	N 	0.6459	0.7427	0.6055	-0.198
Mof_N 	N 	0.3855	0.8963	0.6814	-0.228
Mof_N 	N 	0.4359	0.87	0.7067	-0.199
Mof_N 	N 	0.313	0.1992	0.879	-0.226
Mof_N 	N 	0.3541	0.2427	0.8945	-0.198
Mof_N 	N 	0.6145	0.3963	0.8186	-0.228
Mof_N 	N 	0.5641	0.37	0.7933	-0.199
Mof_O 	O 	0.383	0.0458	0.6833	-0.454
Mof_O 	O 	0.607	0.1002	0.5966	-0.394
Mof_O 	O 	0.2745	0.0255	0.7161	-0.499
Mof_O 	O 	0.0969	0.1047	0.5661	-0.394
Mof_O 	O 	0.117	0.9542	0.1833	-0.453
Mof_O 	O 	0.893	0.8998	0.0966	-0.394
Mof_O 	O 	0.2255	0.9745	0.2161	-0.499
Mof_O 	O 	0.4031	0.8953	0.0661	-0.394
Mof_O 	O 	0.617	0.5458	0.8167	-0.454
Mof_O 	O 	0.393	0.6002	0.9034	-0.394
Mof_O 	O 	0.7255	0.5255	0.7839	-0.499
Mof_O 	O 	0.9031	0.6047	0.9339	-0.394
Mof_O 	O 	0.883	0.4542	0.3167	-0.454
Mof_O 	O 	0.107	0.3998	0.4034	-0.394
Mof_O 	O 	0.7745	0.4745	0.2839	-0.499
Mof_O 	O 	0.5969	0.3953	0.4339	-0.394
Mof_O 	O 	0.6833	0.383	0.0458	-0.454
Mof_O 	O 	0.5966	0.607	0.1002	-0.394
Mof_O 	O 	0.7161	0.2745	0.0255	-0.499
Mof_O 	O 	0.5661	0.0969	0.1047	-0.394
Mof_O 	O 	0.1833	0.117	0.9542	-0.453
Mof_O 	O 	0.0966	0.893	0.8998	-0.394
Mof_O 	O 	0.2161	0.2255	0.9745	-0.499
Mof_O 	O 	0.0661	0.4031	0.8953	-0.394
Mof_O 	O 	0.8167	0.617	0.5458	-0.454
Mof_O 	O 	0.9034	0.393	0.6002	-0.394
Mof_O 	O 	0.7839	0.7255	0.5255	-0.499
Mof_O 	O 	0.9339	0.9031	0.6047	-0.394
Mof_O 	O 	0.3167	0.883	0.4542	-0.454
Mof_O 	O 	0.4034	0.107	0.3998	-0.394
Mof_O 	O 	0.2839	0.7745	0.4745	-0.499
Mof_O 	O 	0.4339	0.5969	0.3953	-0.394
Mof_O 	O 	0.0458	0.6833	0.383	-0.454
Mof_O 	O 	0.1002	0.5966	0.607	-0.394
Mof_O 	O 	0.0255	0.7161	0.2745	-0.499
Mof_O 	O 	0.1047	0.5661	0.0969	-0.394
Mof_O 	O 	0.9542	0.1833	0.117	-0.453
Mof_O 	O 	0.8998	0.0966	0.893	-0.394
Mof_O 	O 	0.9745	0.2161	0.2255	-0.499
Mof_O 	O 	0.8953	0.0661	0.4031	-0.394
Mof_O 	O 	0.5458	0.8167	0.617	-0.454
Mof_O 	O 	0.6002	0.9034	0.393	-0.394
Mof_O 	O 	0.5255	0.7839	0.7255	-0.499
Mof_O 	O 	0.6047	0.9339	0.9031	-0.394
Mof_O 	O 	0.4542	0.3167	0.883	-0.454
Mof_O 	O 	0.3998	0.4034	0.107	-0.394
Mof_O 	O 	0.4745	0.2839	0.7745	-0.499
Mof_O 	O 	0.3953	0.4339	0.5969	-0.394
_end
