# CIF file generated by openbabel 3.1.0, see https://openbabel.org
data_I
_chemical_name_common 'MIVPAJ_clean'
_cell_length_a 7.6435
_cell_length_b 9.84
_cell_length_c 14.785
_cell_angle_alpha 90
_cell_angle_beta 98.27
_cell_angle_gamma 90
_space_group_name_H-M_alt 'P 1'
_space_group_name_Hall 'P 1'
loop_
    _symmetry_equiv_pos_as_xyz
    x,y,z
loop_
    _atom_site_label
    _atom_site_type_symbol
    _atom_site_fract_x
    _atom_site_fract_y
    _atom_site_fract_z
    _atom_site_occupancy
    Gd1      Gd       0.85200    0.04504    0.63922    1.000
    Gd2      Gd       0.64800    0.54504    0.86078    1.000
    Gd3      Gd       0.14800    0.95496    0.36079    1.000
    Gd4      Gd       0.35200    0.45496    0.13922    1.000
    H1       H        0.61520    0.30170    0.48470    1.000
    H2       H        0.82600    0.61370    0.63550    1.000
    H3       H        0.79680    0.61020    0.36310    1.000
    H4       H        0.88480    0.80170    0.01530    1.000
    H5       H        0.67400    0.11370    0.86450    1.000
    H6       H        0.70320    0.11020    0.13690    1.000
    H7       H        0.38480    0.69830    0.51530    1.000
    H8       H        0.17400    0.38630    0.36450    1.000
    H9       H        0.20320    0.38980    0.63690    1.000
    H10      H        0.11520    0.19830    0.98470    1.000
    H11      H        0.32600    0.88630    0.13550    1.000
    H12      H        0.29680    0.88980    0.86310    1.000
    C1       C        0.66920    0.38660    0.48813    1.000
    C2       C        0.72110    0.44210    0.57389    1.000
    C3       C        0.79630    0.57070    0.57936    1.000
    C4       C        0.82620    0.63350    0.49904    1.000
    C5       C        0.77400    0.56830    0.41656    1.000
    C6       C        0.69200    0.36270    0.65693    1.000
    C7       C        0.91130    0.77150    0.50067    1.000
    C8       C        0.45680    0.96840    0.53902    1.000
    C9       C        0.83080    0.88660    0.01187    1.000
    C10      C        0.77890    0.94210    0.92611    1.000
    C11      C        0.70370    0.07070    0.92064    1.000
    C12      C        0.67380    0.13350    0.00096    1.000
    C13      C        0.72600    0.06830    0.08344    1.000
    C14      C        0.80800    0.86270    0.84307    1.000
    C15      C        0.58870    0.27150    0.99933    1.000
    C16      C        0.04320    0.46840    0.96098    1.000
    C17      C        0.33080    0.61340    0.51187    1.000
    C18      C        0.27890    0.55790    0.42611    1.000
    C19      C        0.20370    0.42930    0.42064    1.000
    C20      C        0.17380    0.36650    0.50096    1.000
    C21      C        0.22600    0.43170    0.58344    1.000
    C22      C        0.30800    0.63730    0.34307    1.000
    C23      C        0.08870    0.22850    0.49933    1.000
    C24      C        0.54320    0.03160    0.46098    1.000
    C25      C        0.16920    0.11340    0.98813    1.000
    C26      C        0.22110    0.05790    0.07389    1.000
    C27      C        0.29630    0.92930    0.07936    1.000
    C28      C        0.32620    0.86650    0.99904    1.000
    C29      C        0.27400    0.93170    0.91656    1.000
    C30      C        0.19200    0.13730    0.15693    1.000
    C31      C        0.41130    0.72850    0.00067    1.000
    C32      C        0.95680    0.53160    0.03902    1.000
    N1       N        0.69210    0.44746    0.41037    1.000
    N2       N        0.80790    0.94746    0.08963    1.000
    N3       N        0.30790    0.55254    0.58963    1.000
    N4       N        0.19210    0.05254    0.91037    1.000
    O1       O        0.66619    0.23598    0.64687    1.000
    O2       O        0.69520    0.42332    0.73085    1.000
    O3       O        0.90880    0.84190    0.57080    1.000
    O4       O        0.97870    0.80587    0.43243    1.000
    O5       O        0.55270    0.95198    0.61423    1.000
    O6       O        0.29653    0.93687    0.52067    1.000
    O7       O        0.83381    0.73598    0.85313    1.000
    O8       O        0.80480    0.92332    0.76915    1.000
    O9       O        0.59120    0.34190    0.92920    1.000
    O10      O        0.52130    0.30587    0.06757    1.000
    O11      O        0.94730    0.45198    0.88577    1.000
    O12      O        0.20347    0.43687    0.97933    1.000
    O13      O        0.33381    0.76402    0.35313    1.000
    O14      O        0.30480    0.57668    0.26915    1.000
    O15      O        0.09120    0.15810    0.42920    1.000
    O16      O        0.02130    0.19413    0.56757    1.000
    O17      O        0.44730    0.04802    0.38577    1.000
    O18      O        0.70347    0.06313    0.47933    1.000
    O19      O        0.16619    0.26402    0.14687    1.000
    O20      O        0.19520    0.07668    0.23085    1.000
    O21      O        0.40880    0.65810    0.07080    1.000
    O22      O        0.47870    0.69413    0.93243    1.000
    O23      O        0.05270    0.54802    0.11423    1.000
    O24      O        0.79653    0.56313    0.02067    1.000
