data_functionalizedCrystal
_audit_creation_method	'EQeq! by Chris Wilmer'
_symmetry_space_group_name_H-M	'P1'
_symmetry_Int_Tables_number	1
_symmetry_cell_setting	triclinic
loop_
_symmetry_equiv_pos_as_xyz
  x,y,z
_cell_length_a	18.8327
_cell_length_b	18.8327
_cell_length_c	18.8327
_cell_angle_alpha	72.8077
_cell_angle_beta	72.8077
_cell_angle_gamma	72.8077
loop_
_atom_site_label
_atom_site_type_symbol
_atom_site_fract_x
_atom_site_fract_y
_atom_site_fract_z
_atom_site_charge
Mof_Cu	Cu	0.41282	0.26827	0.85036	0.901
Mof_Cu	Cu	0.85036	0.41282	0.26827	0.901
Mof_Cu	Cu	0.26827	0.85036	0.41282	0.901
Mof_Cu	Cu	0.23173	0.08719	0.64964	0.901
Mof_Cu	Cu	0.08718	0.64964	0.23173	0.901
Mof_Cu	Cu	0.64964	0.23173	0.08718	0.901
Mof_Cu	Cu	0.58718	0.73173	0.14964	0.901
Mof_Cu	Cu	0.14964	0.58718	0.73173	0.901
Mof_Cu	Cu	0.73173	0.14964	0.58718	0.901
Mof_Cu	Cu	0.76827	0.91282	0.35036	0.901
Mof_Cu	Cu	0.91282	0.35036	0.76827	0.901
Mof_Cu	Cu	0.35036	0.76827	0.91282	0.901
Mof_H 	H 	0.4396	0.305	0.9818	-0.007
Mof_H 	H 	0.3732	0.3751	0.0741	0.115
Mof_H 	H 	0.1846	0.4139	0.9959	0.111
Mof_H 	H 	0.2559	0.342	0.908	0.015
Mof_H 	H 	0.9818	0.4396	0.305	-0.007
Mof_H 	H 	0.0741	0.3732	0.3751	0.115
Mof_H 	H 	0.9959	0.1846	0.4139	0.111
Mof_H 	H 	0.908	0.2559	0.342	0.015
Mof_H 	H 	0.305	0.9818	0.4396	-0.007
Mof_H 	H 	0.3751	0.0741	0.3732	0.115
Mof_H 	H 	0.4139	0.9959	0.1846	0.111
Mof_H 	H 	0.342	0.908	0.2559	0.015
Mof_H 	H 	0.195	0.0604	0.5182	-0.007
Mof_H 	H 	0.1249	0.1268	0.4259	0.114
Mof_H 	H 	0.0861	0.3154	0.5041	0.112
Mof_H 	H 	0.158	0.2441	0.592	0.014
Mof_H 	H 	0.0604	0.5182	0.195	-0.007
Mof_H 	H 	0.1268	0.4259	0.1249	0.114
Mof_H 	H 	0.3154	0.5041	0.0861	0.112
Mof_H 	H 	0.2441	0.592	0.158	0.014
Mof_H 	H 	0.5182	0.195	0.0604	-0.007
Mof_H 	H 	0.4259	0.1249	0.1268	0.114
Mof_H 	H 	0.5041	0.0861	0.3154	0.112
Mof_H 	H 	0.592	0.158	0.2441	0.014
Mof_H 	H 	0.5604	0.695	0.0182	-0.007
Mof_H 	H 	0.6268	0.6249	0.9259	0.115
Mof_H 	H 	0.8154	0.5861	0.0041	0.111
Mof_H 	H 	0.7441	0.658	0.092	0.015
Mof_H 	H 	0.0182	0.5604	0.695	-0.007
Mof_H 	H 	0.9259	0.6268	0.6249	0.115
Mof_H 	H 	0.0041	0.8154	0.5861	0.111
Mof_H 	H 	0.092	0.7441	0.658	0.015
Mof_H 	H 	0.695	0.0182	0.5604	-0.007
Mof_H 	H 	0.6249	0.9259	0.6268	0.115
Mof_H 	H 	0.5861	0.0041	0.8154	0.111
Mof_H 	H 	0.658	0.092	0.7441	0.015
Mof_H 	H 	0.805	0.9396	0.4818	-0.007
Mof_H 	H 	0.8751	0.8732	0.5741	0.114
Mof_H 	H 	0.9139	0.6846	0.4959	0.112
Mof_H 	H 	0.842	0.7559	0.408	0.014
Mof_H 	H 	0.9396	0.4818	0.805	-0.007
Mof_H 	H 	0.8732	0.5741	0.8751	0.114
Mof_H 	H 	0.6846	0.4959	0.9139	0.112
Mof_H 	H 	0.7559	0.408	0.842	0.014
Mof_H 	H 	0.4818	0.805	0.9396	-0.007
Mof_H 	H 	0.5741	0.8751	0.8732	0.114
Mof_H 	H 	0.4959	0.9139	0.6846	0.112
Mof_H 	H 	0.408	0.842	0.7559	0.014
Mof_C 	C 	0.27691	0.91391	0.92211	0.425
Mof_C 	C 	0.2542	0.9848	0.954	-0.217
Mof_C 	C 	0.18586	0.00146	0.00706	0.283
Mof_C 	C 	0.1613	0.069	0.0332	-0.169
Mof_C 	C 	0.38739	0.32749	0.98509	0.126
Mof_C 	C 	0.34804	0.36994	0.04034	-0.131
Mof_C 	C 	0.27151	0.40431	0.04431	0.092
Mof_C 	C 	0.23678	0.39258	0.99408	-0.113
Mof_C 	C 	0.27964	0.34944	0.94174	0.119
Mof_C 	C 	0.34368	0.14708	0.94158	0.475
Mof_C 	C 	0.28493	0.10043	0.95923	-0.235
Mof_C 	C 	0.3036	0.0345	0.932	0.306
Mof_C 	C 	0.21417	0.11637	0.00937	0.293
Mof_C 	C 	0.92211	0.27691	0.91391	0.425
Mof_C 	C 	0.954	0.2542	0.9848	-0.217
Mof_C 	C 	0.00706	0.18586	0.00146	0.283
Mof_C 	C 	0.0332	0.1613	0.069	-0.169
Mof_C 	C 	0.98509	0.38739	0.32749	0.126
Mof_C 	C 	0.04034	0.34804	0.36994	-0.131
Mof_C 	C 	0.04431	0.27151	0.40431	0.092
Mof_C 	C 	0.99408	0.23678	0.39258	-0.113
Mof_C 	C 	0.94174	0.27964	0.34944	0.119
Mof_C 	C 	0.94158	0.34368	0.14708	0.475
Mof_C 	C 	0.95923	0.28493	0.10043	-0.235
Mof_C 	C 	0.932	0.3036	0.0345	0.306
Mof_C 	C 	0.00937	0.21417	0.11637	0.293
Mof_C 	C 	0.91391	0.92211	0.27691	0.425
Mof_C 	C 	0.9848	0.954	0.2542	-0.217
Mof_C 	C 	0.00146	0.00706	0.18586	0.283
Mof_C 	C 	0.069	0.0332	0.1613	-0.169
Mof_C 	C 	0.32749	0.98509	0.38739	0.126
Mof_C 	C 	0.36994	0.04034	0.34804	-0.131
Mof_C 	C 	0.40431	0.04431	0.27151	0.092
Mof_C 	C 	0.39258	0.99408	0.23678	-0.113
Mof_C 	C 	0.34944	0.94174	0.27964	0.119
Mof_C 	C 	0.14708	0.94158	0.34368	0.475
Mof_C 	C 	0.10043	0.95923	0.28493	-0.235
Mof_C 	C 	0.0345	0.932	0.3036	0.306
Mof_C 	C 	0.11637	0.00937	0.21417	0.293
Mof_C 	C 	0.58609	0.22309	0.57789	0.427
Mof_C 	C 	0.5152	0.2458	0.546	-0.222
Mof_C 	C 	0.49854	0.31414	0.49294	0.294
Mof_C 	C 	0.431	0.3387	0.4668	-0.174
Mof_C 	C 	0.17251	0.11261	0.51491	0.124
Mof_C 	C 	0.13006	0.15196	0.45966	-0.13
Mof_C 	C 	0.09569	0.22849	0.45569	0.095
Mof_C 	C 	0.10742	0.26322	0.50592	-0.117
Mof_C 	C 	0.15056	0.22036	0.55826	0.119
Mof_C 	C 	0.35292	0.15632	0.55842	0.477
Mof_C 	C 	0.39957	0.21507	0.54077	-0.242
Mof_C 	C 	0.4655	0.1964	0.568	0.308
Mof_C 	C 	0.38363	0.28583	0.49063	0.299
Mof_C 	C 	0.22309	0.57789	0.58609	0.427
Mof_C 	C 	0.2458	0.546	0.5152	-0.222
Mof_C 	C 	0.31414	0.49294	0.49854	0.294
Mof_C 	C 	0.3387	0.4668	0.431	-0.174
Mof_C 	C 	0.11261	0.51491	0.17251	0.124
Mof_C 	C 	0.15196	0.45966	0.13006	-0.13
Mof_C 	C 	0.22849	0.45569	0.09569	0.095
Mof_C 	C 	0.26322	0.50592	0.10742	-0.117
Mof_C 	C 	0.22036	0.55826	0.15056	0.119
Mof_C 	C 	0.15632	0.55842	0.35292	0.477
Mof_C 	C 	0.21507	0.54077	0.39957	-0.242
Mof_C 	C 	0.1964	0.568	0.4655	0.308
Mof_C 	C 	0.28583	0.49063	0.38363	0.299
Mof_C 	C 	0.57789	0.58609	0.22309	0.427
Mof_C 	C 	0.546	0.5152	0.2458	-0.222
Mof_C 	C 	0.49294	0.49854	0.31414	0.294
Mof_C 	C 	0.4668	0.431	0.3387	-0.174
Mof_C 	C 	0.51491	0.17251	0.11261	0.124
Mof_C 	C 	0.45966	0.13006	0.15196	-0.13
Mof_C 	C 	0.45569	0.09569	0.22849	0.095
Mof_C 	C 	0.50592	0.10742	0.26322	-0.117
Mof_C 	C 	0.55826	0.15056	0.22036	0.119
Mof_C 	C 	0.55842	0.35292	0.15632	0.477
Mof_C 	C 	0.54077	0.39957	0.21507	-0.242
Mof_C 	C 	0.568	0.4655	0.1964	0.308
Mof_C 	C 	0.49063	0.38363	0.28583	0.299
Mof_C 	C 	0.72309	0.08609	0.07789	0.425
Mof_C 	C 	0.7458	0.0152	0.046	-0.217
Mof_C 	C 	0.81414	0.99854	0.99294	0.283
Mof_C 	C 	0.8387	0.931	0.9668	-0.169
Mof_C 	C 	0.61261	0.67251	0.01491	0.126
Mof_C 	C 	0.65196	0.63006	0.95966	-0.131
Mof_C 	C 	0.72849	0.59569	0.95569	0.092
Mof_C 	C 	0.76322	0.60742	0.00592	-0.113
Mof_C 	C 	0.72036	0.65056	0.05826	0.119
Mof_C 	C 	0.65632	0.85292	0.05842	0.475
Mof_C 	C 	0.71507	0.89957	0.04077	-0.235
Mof_C 	C 	0.6964	0.9655	0.068	0.306
Mof_C 	C 	0.78583	0.88363	0.99063	0.293
Mof_C 	C 	0.07789	0.72309	0.08609	0.425
Mof_C 	C 	0.046	0.7458	0.0152	-0.217
Mof_C 	C 	0.99294	0.81414	0.99854	0.283
Mof_C 	C 	0.9668	0.8387	0.931	-0.169
Mof_C 	C 	0.01491	0.61261	0.67251	0.126
Mof_C 	C 	0.95966	0.65196	0.63006	-0.131
Mof_C 	C 	0.95569	0.72849	0.59569	0.092
Mof_C 	C 	0.00592	0.76322	0.60742	-0.113
Mof_C 	C 	0.05826	0.72036	0.65056	0.119
Mof_C 	C 	0.05842	0.65632	0.85292	0.475
Mof_C 	C 	0.04077	0.71507	0.89957	-0.235
Mof_C 	C 	0.068	0.6964	0.9655	0.306
Mof_C 	C 	0.99063	0.78583	0.88363	0.293
Mof_C 	C 	0.08609	0.07789	0.72309	0.425
Mof_C 	C 	0.0152	0.046	0.7458	-0.217
Mof_C 	C 	0.99854	0.99294	0.81414	0.283
Mof_C 	C 	0.931	0.9668	0.8387	-0.169
Mof_C 	C 	0.67251	0.01491	0.61261	0.126
Mof_C 	C 	0.63006	0.95966	0.65196	-0.131
Mof_C 	C 	0.59569	0.95569	0.72849	0.092
Mof_C 	C 	0.60742	0.00592	0.76322	-0.113
Mof_C 	C 	0.65056	0.05826	0.72036	0.119
Mof_C 	C 	0.85292	0.05842	0.65632	0.475
Mof_C 	C 	0.89957	0.04077	0.71507	-0.235
Mof_C 	C 	0.9655	0.068	0.6964	0.306
Mof_C 	C 	0.88363	0.99063	0.78583	0.293
Mof_C 	C 	0.41391	0.77691	0.42211	0.427
Mof_C 	C 	0.4848	0.7542	0.454	-0.222
Mof_C 	C 	0.50146	0.68586	0.50706	0.294
Mof_C 	C 	0.569	0.6613	0.5332	-0.174
Mof_C 	C 	0.82749	0.88739	0.48509	0.124
Mof_C 	C 	0.86994	0.84804	0.54034	-0.13
Mof_C 	C 	0.90431	0.77151	0.54431	0.095
Mof_C 	C 	0.89258	0.73678	0.49408	-0.117
Mof_C 	C 	0.84944	0.77964	0.44174	0.119
Mof_C 	C 	0.64708	0.84368	0.44158	0.477
Mof_C 	C 	0.60043	0.78493	0.45923	-0.242
Mof_C 	C 	0.5345	0.8036	0.432	0.308
Mof_C 	C 	0.61637	0.71417	0.50937	0.299
Mof_C 	C 	0.77691	0.42211	0.41391	0.427
Mof_C 	C 	0.7542	0.454	0.4848	-0.222
Mof_C 	C 	0.68586	0.50706	0.50146	0.294
Mof_C 	C 	0.6613	0.5332	0.569	-0.174
Mof_C 	C 	0.88739	0.48509	0.82749	0.124
Mof_C 	C 	0.84804	0.54034	0.86994	-0.13
Mof_C 	C 	0.77151	0.54431	0.90431	0.095
Mof_C 	C 	0.73678	0.49408	0.89258	-0.117
Mof_C 	C 	0.77964	0.44174	0.84944	0.119
Mof_C 	C 	0.84368	0.44158	0.64708	0.477
Mof_C 	C 	0.78493	0.45923	0.60043	-0.242
Mof_C 	C 	0.8036	0.432	0.5345	0.308
Mof_C 	C 	0.71417	0.50937	0.61637	0.299
Mof_C 	C 	0.42211	0.41391	0.77691	0.427
Mof_C 	C 	0.454	0.4848	0.7542	-0.222
Mof_C 	C 	0.50706	0.50146	0.68586	0.294
Mof_C 	C 	0.5332	0.569	0.6613	-0.174
Mof_C 	C 	0.48509	0.82749	0.88739	0.124
Mof_C 	C 	0.54034	0.86994	0.84804	-0.13
Mof_C 	C 	0.54431	0.90431	0.77151	0.095
Mof_C 	C 	0.49408	0.89258	0.73678	-0.117
Mof_C 	C 	0.44174	0.84944	0.77964	0.119
Mof_C 	C 	0.44158	0.64708	0.84368	0.477
Mof_C 	C 	0.45923	0.60043	0.78493	-0.242
Mof_C 	C 	0.432	0.5345	0.8036	0.308
Mof_C 	C 	0.50937	0.61637	0.71417	0.299
Mof_C 	C 	0.08653	0.08653	0.08653	0.248
Mof_C 	C 	0.41347	0.41347	0.41347	0.253
Mof_C 	C 	0.91347	0.91347	0.91347	0.248
Mof_C 	C 	0.58653	0.58653	0.58653	0.253
Mof_N 	N 	0.35371	0.31771	0.93741	-0.219
Mof_N 	N 	0.93741	0.35371	0.31771	-0.219
Mof_N 	N 	0.31771	0.93741	0.35371	-0.219
Mof_N 	N 	0.18229	0.14629	0.56259	-0.219
Mof_N 	N 	0.14629	0.56259	0.18229	-0.219
Mof_N 	N 	0.56259	0.18229	0.14629	-0.219
Mof_N 	N 	0.64629	0.68229	0.06259	-0.219
Mof_N 	N 	0.06259	0.64629	0.68229	-0.219
Mof_N 	N 	0.68229	0.06259	0.64629	-0.219
Mof_N 	N 	0.81771	0.85371	0.43741	-0.219
Mof_N 	N 	0.85371	0.43741	0.81771	-0.219
Mof_N 	N 	0.43741	0.81771	0.85371	-0.219
Mof_Cl	Cl	0.38891	0.01573	0.86636	-0.341
Mof_Cl	Cl	0.12773	0.93766	0.03359	-0.249
Mof_Cl	Cl	0.1917	0.20005	0.04035	-0.308
Mof_Cl	Cl	0.86636	0.38891	0.01573	-0.341
Mof_Cl	Cl	0.03359	0.12773	0.93766	-0.249
Mof_Cl	Cl	0.04035	0.1917	0.20005	-0.308
Mof_Cl	Cl	0.01573	0.86636	0.38891	-0.341
Mof_Cl	Cl	0.93766	0.03359	0.12773	-0.249
Mof_Cl	Cl	0.20005	0.04035	0.1917	-0.308
Mof_Cl	Cl	0.48427	0.11109	0.63364	-0.342
Mof_Cl	Cl	0.56234	0.37227	0.46641	-0.254
Mof_Cl	Cl	0.29995	0.3083	0.45965	-0.307
Mof_Cl	Cl	0.11109	0.63364	0.48427	-0.342
Mof_Cl	Cl	0.37227	0.46641	0.56234	-0.254
Mof_Cl	Cl	0.3083	0.45965	0.29995	-0.307
Mof_Cl	Cl	0.63364	0.48427	0.11109	-0.342
Mof_Cl	Cl	0.46641	0.56234	0.37227	-0.254
Mof_Cl	Cl	0.45965	0.29995	0.3083	-0.307
Mof_Cl	Cl	0.61109	0.98427	0.13364	-0.341
Mof_Cl	Cl	0.87227	0.06234	0.96641	-0.249
Mof_Cl	Cl	0.8083	0.79995	0.95965	-0.308
Mof_Cl	Cl	0.13364	0.61109	0.98427	-0.341
Mof_Cl	Cl	0.96641	0.87227	0.06234	-0.249
Mof_Cl	Cl	0.95965	0.8083	0.79995	-0.308
Mof_Cl	Cl	0.98427	0.13364	0.61109	-0.341
Mof_Cl	Cl	0.06234	0.96641	0.87227	-0.249
Mof_Cl	Cl	0.79995	0.95965	0.8083	-0.308
Mof_Cl	Cl	0.51573	0.88891	0.36636	-0.342
Mof_Cl	Cl	0.43766	0.62773	0.53359	-0.254
Mof_Cl	Cl	0.70005	0.6917	0.54035	-0.307
Mof_Cl	Cl	0.88891	0.36636	0.51573	-0.342
Mof_Cl	Cl	0.62773	0.53359	0.43766	-0.254
Mof_Cl	Cl	0.6917	0.54035	0.70005	-0.307
Mof_Cl	Cl	0.36636	0.51573	0.88891	-0.342
Mof_Cl	Cl	0.53359	0.43766	0.62773	-0.254
Mof_Cl	Cl	0.54035	0.70005	0.6917	-0.307
Mof_O 	O 	0.34747	0.19597	0.88437	-0.421
Mof_O 	O 	0.30639	0.85349	0.96346	-0.387
Mof_O 	O 	0.26648	0.92068	0.85818	-0.269
Mof_O 	O 	0.38479	0.12909	0.98839	-0.276
Mof_O 	O 	0.88437	0.34747	0.19597	-0.421
Mof_O 	O 	0.96346	0.30639	0.85349	-0.387
Mof_O 	O 	0.85818	0.26648	0.92068	-0.269
Mof_O 	O 	0.98839	0.38479	0.12909	-0.276
Mof_O 	O 	0.19597	0.88437	0.34747	-0.421
Mof_O 	O 	0.85349	0.96346	0.30639	-0.387
Mof_O 	O 	0.92068	0.85818	0.26648	-0.269
Mof_O 	O 	0.12909	0.98839	0.38479	-0.276
Mof_O 	O 	0.30403	0.15253	0.61563	-0.422
Mof_O 	O 	0.64651	0.19361	0.53654	-0.387
Mof_O 	O 	0.57932	0.23352	0.64182	-0.269
Mof_O 	O 	0.37091	0.11521	0.51161	-0.278
Mof_O 	O 	0.15253	0.61563	0.30403	-0.422
Mof_O 	O 	0.19361	0.53654	0.64651	-0.387
Mof_O 	O 	0.23352	0.64182	0.57932	-0.269
Mof_O 	O 	0.11521	0.51161	0.37091	-0.278
Mof_O 	O 	0.61563	0.30403	0.15253	-0.422
Mof_O 	O 	0.53654	0.64651	0.19361	-0.387
Mof_O 	O 	0.64182	0.57932	0.23352	-0.269
Mof_O 	O 	0.51161	0.37091	0.11521	-0.278
Mof_O 	O 	0.65253	0.80403	0.11563	-0.421
Mof_O 	O 	0.69361	0.14651	0.03654	-0.387
Mof_O 	O 	0.73352	0.07932	0.14182	-0.269
Mof_O 	O 	0.61521	0.87091	0.01161	-0.276
Mof_O 	O 	0.11563	0.65253	0.80403	-0.421
Mof_O 	O 	0.03654	0.69361	0.14651	-0.387
Mof_O 	O 	0.14182	0.73352	0.07932	-0.269
Mof_O 	O 	0.01161	0.61521	0.87091	-0.276
Mof_O 	O 	0.80403	0.11563	0.65253	-0.421
Mof_O 	O 	0.14651	0.03654	0.69361	-0.387
Mof_O 	O 	0.07932	0.14182	0.73352	-0.269
Mof_O 	O 	0.87091	0.01161	0.61521	-0.276
Mof_O 	O 	0.69597	0.84747	0.38437	-0.422
Mof_O 	O 	0.35349	0.80639	0.46346	-0.387
Mof_O 	O 	0.42068	0.76648	0.35818	-0.269
Mof_O 	O 	0.62909	0.88479	0.48839	-0.278
Mof_O 	O 	0.84747	0.38437	0.69597	-0.422
Mof_O 	O 	0.80639	0.46346	0.35349	-0.387
Mof_O 	O 	0.76648	0.35818	0.42068	-0.269
Mof_O 	O 	0.88479	0.48839	0.62909	-0.278
Mof_O 	O 	0.38437	0.69597	0.84747	-0.422
Mof_O 	O 	0.46346	0.35349	0.80639	-0.387
Mof_O 	O 	0.35818	0.42068	0.76648	-0.269
Mof_O 	O 	0.48839	0.62909	0.88479	-0.278
_end
