data_functionalizedCrystal
_audit_creation_method	'EQeq! by Chris Wilmer'
_symmetry_space_group_name_H-M	'P1'
_symmetry_Int_Tables_number	1
_symmetry_cell_setting	triclinic
loop_
_symmetry_equiv_pos_as_xyz
  x,y,z
_cell_length_a	13.3382
_cell_length_b	21.4986
_cell_length_c	10.1527
_cell_angle_alpha	90
_cell_angle_beta	95
_cell_angle_gamma	90
loop_
_atom_site_label
_atom_site_type_symbol
_atom_site_fract_x
_atom_site_fract_y
_atom_site_fract_z
_atom_site_charge
Mof_C 	C 	0.1033	0.7198	0.7546	-0.002
Mof_C 	C 	0.2599	0.8031	0.7541	-0.062
Mof_C 	C 	0.1367	0.7365	0.6357	-0.091
Mof_H 	H 	0.1082	0.7198	0.5566	0.072
Mof_C 	C 	0.2156	0.7798	0.6382	-0.084
Mof_H 	H 	0.2383	0.7929	0.5588	0.058
Mof_C 	C 	0.2215	0.7859	0.8749	0.077
Mof_H 	H 	0.2492	0.8029	0.9541	0.007
Mof_C 	C 	0.1424	0.7436	0.8752	0.054
Mof_H 	H 	0.1167	0.7317	0.9537	0.03
Mof_C 	C 	0.3466	0.8475	0.7522	0.316
Mof_C 	C 	0.3628	0.0173	0.8044	0.325
Mof_C 	C 	0.2726	0.0593	0.7927	-0.072
Mof_C 	C 	0.2384	0.082	0.6681	-0.003
Mof_H 	H 	0.2716	0.0718	0.5942	0.056
Mof_C 	C 	0.154	0.1201	0.6559	-0.062
Mof_H 	H 	0.1304	0.1358	0.5737	0.058
Mof_C 	C 	0.1051	0.1346	0.7678	-0.004
Mof_C 	C 	0.1382	0.1117	0.8916	-0.068
Mof_H 	H 	0.1045	0.1215	0.9652	0.06
Mof_C 	C 	0.2227	0.0737	0.9033	-0.002
Mof_H 	H 	0.246	0.0578	0.9856	0.05
Mof_Cd	Cd	0.51548	0.92697	0.91945	0.517
Mof_O 	O 	0.3851	0.9906	0.7035	-0.277
Mof_O 	O 	0.41	0.0095	0.9191	-0.29
Mof_O 	O 	0.3789	0.871	0.8607	-0.278
Mof_O 	O 	0.3802	0.8568	0.6406	-0.285
Mof_O 	O 	0.0046	0.6338	0.8725	-0.232
Mof_O 	O 	0.0045	0.2183	0.628	-0.225
Mof_C 	C 	0.1713	0.7145	0.66	0.018
Mof_H 	H 	0.1638	0.6834	0.5961	0.036
Mof_C 	C 	0.2514	0.7563	0.662	0.066
Mof_H 	H 	0.2989	0.7525	0.6002	0.017
Mof_C 	C 	0.195	0.8092	0.846	-0.087
Mof_H 	H 	0.2046	0.8405	0.9094	0.057
Mof_C 	C 	0.113	0.7691	0.848	-0.138
Mof_H 	H 	0.0652	0.7745	0.9091	0.078
Mof_C 	C 	0.8967	0.7198	0.7454	0.029
Mof_C 	C 	0.7401	0.8031	0.7459	-0.074
Mof_C 	C 	0.8633	0.7365	0.8643	-0.001
Mof_H 	H 	0.8918	0.7198	0.9434	0.056
Mof_C 	C 	0.7844	0.7798	0.8618	0.036
Mof_H 	H 	0.7617	0.7929	0.9412	0.022
Mof_C 	C 	0.7785	0.7859	0.6251	0.019
Mof_H 	H 	0.7508	0.8029	0.5459	0.026
Mof_C 	C 	0.8576	0.7436	0.6248	-0.019
Mof_H 	H 	0.8833	0.7317	0.5463	0.057
Mof_C 	C 	0.6534	0.8475	0.7478	0.321
Mof_C 	C 	0.6372	0.0173	0.6956	0.328
Mof_C 	C 	0.7274	0.0593	0.7073	-0.079
Mof_C 	C 	0.7616	0.082	0.8319	0.011
Mof_H 	H 	0.7284	0.0718	0.9058	0.054
Mof_C 	C 	0.846	0.1201	0.8441	-0.076
Mof_H 	H 	0.8696	0.1358	0.9263	0.07
Mof_C 	C 	0.8949	0.1346	0.7322	0.026
Mof_C 	C 	0.8618	0.1117	0.6084	-0.08
Mof_H 	H 	0.8955	0.1215	0.5348	0.076
Mof_C 	C 	0.7773	0.0737	0.5967	0.012
Mof_H 	H 	0.754	0.0578	0.5144	0.048
Mof_Cd	Cd	0.48452	0.92697	0.58055	0.517
Mof_O 	O 	0.6149	0.9906	0.7965	-0.277
Mof_O 	O 	0.59	0.0095	0.5809	-0.291
Mof_O 	O 	0.6211	0.871	0.6393	-0.278
Mof_O 	O 	0.6198	0.8568	0.8594	-0.286
Mof_O 	O 	0.9954	0.6338	0.6275	-0.192
Mof_O 	O 	0.9955	0.2183	0.872	-0.19
Mof_C 	C 	0.8287	0.7145	0.84	-0.089
Mof_H 	H 	0.8362	0.6834	0.9039	0.073
Mof_C 	C 	0.7486	0.7563	0.838	-0.038
Mof_H 	H 	0.7011	0.7525	0.8998	0.051
Mof_C 	C 	0.805	0.8092	0.654	-0.02
Mof_H 	H 	0.7954	0.8405	0.5906	0.038
Mof_C 	C 	0.887	0.7691	0.652	-0.075
Mof_H 	H 	0.9348	0.7745	0.5909	0.072
Mof_C 	C 	0.8967	0.2802	0.2454	0.026
Mof_C 	C 	0.7401	0.1969	0.2459	-0.073
Mof_C 	C 	0.8633	0.2635	0.3643	-0.004
Mof_H 	H 	0.8918	0.2802	0.4434	0.056
Mof_C 	C 	0.7844	0.2202	0.3618	0.032
Mof_H 	H 	0.7617	0.2071	0.4412	0.022
Mof_C 	C 	0.7785	0.2141	0.1251	0.021
Mof_H 	H 	0.7508	0.1971	0.0459	0.025
Mof_C 	C 	0.8576	0.2564	0.1248	-0.016
Mof_H 	H 	0.8833	0.2683	0.0463	0.055
Mof_C 	C 	0.6534	0.1525	0.2478	0.321
Mof_C 	C 	0.6372	0.9827	0.1956	0.328
Mof_C 	C 	0.7274	0.9407	0.2073	-0.078
Mof_C 	C 	0.7616	0.918	0.3319	0.009
Mof_H 	H 	0.7284	0.9282	0.4058	0.054
Mof_C 	C 	0.846	0.8799	0.3441	-0.074
Mof_H 	H 	0.8696	0.8642	0.4263	0.068
Mof_C 	C 	0.8949	0.8654	0.2322	0.023
Mof_C 	C 	0.8618	0.8883	0.1084	-0.078
Mof_H 	H 	0.8955	0.8785	0.0348	0.074
Mof_C 	C 	0.7773	0.9263	0.0967	0.01
Mof_H 	H 	0.754	0.9422	0.0144	0.048
Mof_Cd	Cd	0.48452	0.07303	0.08055	0.517
Mof_O 	O 	0.6149	0.0094	0.2965	-0.277
Mof_O 	O 	0.59	0.9905	0.0809	-0.291
Mof_O 	O 	0.6211	0.129	0.1393	-0.278
Mof_O 	O 	0.6198	0.1432	0.3594	-0.286
Mof_O 	O 	0.9954	0.3662	0.1275	-0.194
Mof_O 	O 	0.9955	0.7817	0.372	-0.193
Mof_C 	C 	0.8287	0.2855	0.34	-0.086
Mof_H 	H 	0.8362	0.3166	0.4039	0.072
Mof_C 	C 	0.7486	0.2437	0.338	-0.035
Mof_H 	H 	0.7011	0.2475	0.3998	0.049
Mof_C 	C 	0.805	0.1908	0.154	-0.023
Mof_H 	H 	0.7954	0.1595	0.0906	0.039
Mof_C 	C 	0.887	0.2309	0.152	-0.077
Mof_H 	H 	0.9348	0.2255	0.0909	0.072
Mof_C 	C 	0.1033	0.2802	0.2546	-0.003
Mof_C 	C 	0.2599	0.1969	0.2541	-0.063
Mof_C 	C 	0.1367	0.2635	0.1357	-0.089
Mof_H 	H 	0.1082	0.2802	0.0566	0.071
Mof_C 	C 	0.2156	0.2202	0.1382	-0.08
Mof_H 	H 	0.2383	0.2071	0.0588	0.057
Mof_C 	C 	0.2215	0.2141	0.3749	0.075
Mof_H 	H 	0.2492	0.1971	0.4541	0.008
Mof_C 	C 	0.1424	0.2564	0.3752	0.052
Mof_H 	H 	0.1167	0.2683	0.4537	0.031
Mof_C 	C 	0.3466	0.1525	0.2522	0.316
Mof_C 	C 	0.3628	0.9827	0.3044	0.325
Mof_C 	C 	0.2726	0.9407	0.2927	-0.072
Mof_C 	C 	0.2384	0.918	0.1681	-0.003
Mof_H 	H 	0.2716	0.9282	0.0942	0.057
Mof_C 	C 	0.154	0.8799	0.1559	-0.061
Mof_H 	H 	0.1304	0.8642	0.0737	0.058
Mof_C 	C 	0.1051	0.8654	0.2678	-0.005
Mof_C 	C 	0.1382	0.8883	0.3916	-0.067
Mof_H 	H 	0.1045	0.8785	0.4652	0.06
Mof_C 	C 	0.2227	0.9263	0.4033	-0.003
Mof_H 	H 	0.246	0.9422	0.4856	0.051
Mof_Cd	Cd	0.51548	0.07303	0.41945	0.517
Mof_O 	O 	0.3851	0.0094	0.2035	-0.277
Mof_O 	O 	0.41	0.9905	0.4191	-0.29
Mof_O 	O 	0.3789	0.129	0.3607	-0.278
Mof_O 	O 	0.3802	0.1432	0.1406	-0.285
Mof_O 	O 	0.0046	0.3662	0.3725	-0.232
Mof_O 	O 	0.0045	0.7817	0.128	-0.225
Mof_C 	C 	0.1713	0.2855	0.16	0.015
Mof_H 	H 	0.1638	0.3166	0.0961	0.037
Mof_C 	C 	0.2514	0.2437	0.162	0.062
Mof_H 	H 	0.2989	0.2475	0.1002	0.018
Mof_C 	C 	0.195	0.1908	0.346	-0.084
Mof_H 	H 	0.2046	0.1595	0.4094	0.057
Mof_C 	C 	0.113	0.2309	0.348	-0.135
Mof_H 	H 	0.0652	0.2255	0.4091	0.077
Mof_S 	S 	-9.7998e-18	0.66852	0.75	0.217
Mof_S 	S 	-9.7998e-18	0.18504	0.75	0.219
Mof_S 	S 	7.75671e-34	0.33148	0.25	0.222
Mof_S 	S 	-2.44995e-18	0.81496	0.25	0.223
Mof_C 	C 	0.6033	0.2198	0.7546	-0.01
Mof_C 	C 	0.7599	0.3031	0.7541	-0.062
Mof_C 	C 	0.6367	0.2365	0.6357	-0.045
Mof_H 	H 	0.6082	0.2198	0.5566	0.063
Mof_C 	C 	0.7156	0.2798	0.6382	-0.032
Mof_H 	H 	0.7383	0.2929	0.5588	0.042
Mof_C 	C 	0.7215	0.2859	0.8749	0.048
Mof_H 	H 	0.7492	0.3029	0.9541	0.019
Mof_C 	C 	0.6424	0.2436	0.8752	0.027
Mof_H 	H 	0.6167	0.2317	0.9537	0.041
Mof_C 	C 	0.8466	0.3475	0.7522	0.316
Mof_C 	C 	0.8628	0.5173	0.8044	0.324
Mof_C 	C 	0.7726	0.5593	0.7927	-0.064
Mof_C 	C 	0.7384	0.582	0.6681	-0.009
Mof_H 	H 	0.7716	0.5718	0.5942	0.06
Mof_C 	C 	0.654	0.6201	0.6559	-0.048
Mof_H 	H 	0.6304	0.6358	0.5737	0.057
Mof_C 	C 	0.6051	0.6346	0.7678	-0.017
Mof_C 	C 	0.6382	0.6117	0.8916	-0.053
Mof_H 	H 	0.6045	0.6215	0.9652	0.061
Mof_C 	C 	0.7227	0.5737	0.9033	-0.009
Mof_H 	H 	0.746	0.5578	0.9856	0.054
Mof_Cd	Cd	0.01548	0.42697	0.91945	0.488
Mof_O 	O 	0.8851	0.4906	0.7035	-0.271
Mof_O 	O 	0.91	0.5095	0.9191	-0.28
Mof_O 	O 	0.8789	0.371	0.8607	-0.269
Mof_O 	O 	0.8802	0.3568	0.6406	-0.281
Mof_O 	O 	0.5046	0.1338	0.8725	-0.229
Mof_O 	O 	0.5045	0.7183	0.628	-0.226
Mof_C 	C 	0.6713	0.2145	0.66	-0.025
Mof_H 	H 	0.6638	0.1834	0.5961	0.05
Mof_C 	C 	0.7514	0.2563	0.662	0.015
Mof_H 	H 	0.7989	0.2525	0.6002	0.036
Mof_C 	C 	0.695	0.3092	0.846	-0.061
Mof_H 	H 	0.7046	0.3405	0.9094	0.051
Mof_C 	C 	0.613	0.2691	0.848	-0.104
Mof_H 	H 	0.5652	0.2745	0.9091	0.074
Mof_C 	C 	0.3967	0.2198	0.7454	-0.009
Mof_C 	C 	0.2401	0.3031	0.7459	-0.066
Mof_C 	C 	0.3633	0.2365	0.8643	-0.044
Mof_H 	H 	0.3918	0.2198	0.9434	0.062
Mof_C 	C 	0.2844	0.2798	0.8618	-0.029
Mof_H 	H 	0.2617	0.2929	0.9412	0.041
Mof_C 	C 	0.2785	0.2859	0.6251	0.046
Mof_H 	H 	0.2508	0.3029	0.5459	0.016
Mof_C 	C 	0.3576	0.2436	0.6248	0.021
Mof_H 	H 	0.3833	0.2317	0.5463	0.041
Mof_C 	C 	0.1534	0.3475	0.7478	0.319
Mof_C 	C 	0.1372	0.5173	0.6956	0.322
Mof_C 	C 	0.2274	0.5593	0.7073	-0.067
Mof_C 	C 	0.2616	0.582	0.8319	-0.01
Mof_H 	H 	0.2284	0.5718	0.9058	0.058
Mof_C 	C 	0.346	0.6201	0.8441	-0.051
Mof_H 	H 	0.3696	0.6358	0.9263	0.056
Mof_C 	C 	0.3949	0.6346	0.7322	-0.019
Mof_C 	C 	0.3618	0.6117	0.6084	-0.054
Mof_H 	H 	0.3955	0.6215	0.5348	0.061
Mof_C 	C 	0.2773	0.5737	0.5967	-0.009
Mof_H 	H 	0.254	0.5578	0.5144	0.054
Mof_Cd	Cd	0.98452	0.42697	0.58055	0.543
Mof_O 	O 	0.1149	0.4906	0.7965	-0.281
Mof_O 	O 	0.09	0.5095	0.5809	-0.299
Mof_O 	O 	0.1211	0.371	0.6393	-0.287
Mof_O 	O 	0.1198	0.3568	0.8594	-0.29
Mof_O 	O 	0.4954	0.1338	0.6275	-0.229
Mof_O 	O 	0.4955	0.7183	0.872	-0.227
Mof_C 	C 	0.3287	0.2145	0.84	-0.028
Mof_H 	H 	0.3362	0.1834	0.9039	0.051
Mof_C 	C 	0.2486	0.2563	0.838	0.015
Mof_H 	H 	0.2011	0.2525	0.8998	0.032
Mof_C 	C 	0.305	0.3092	0.654	-0.055
Mof_H 	H 	0.2954	0.3405	0.5906	0.049
Mof_C 	C 	0.387	0.2691	0.652	-0.1
Mof_H 	H 	0.4348	0.2745	0.5909	0.073
Mof_C 	C 	0.3967	0.7802	0.2454	-0.009
Mof_C 	C 	0.2401	0.6969	0.2459	-0.066
Mof_C 	C 	0.3633	0.7635	0.3643	-0.045
Mof_H 	H 	0.3918	0.7802	0.4434	0.063
Mof_C 	C 	0.2844	0.7202	0.3618	-0.03
Mof_H 	H 	0.2617	0.7071	0.4412	0.042
Mof_C 	C 	0.2785	0.7141	0.1251	0.046
Mof_H 	H 	0.2508	0.6971	0.0459	0.016
Mof_C 	C 	0.3576	0.7564	0.1248	0.022
Mof_H 	H 	0.3833	0.7683	0.0463	0.041
Mof_C 	C 	0.1534	0.6525	0.2478	0.318
Mof_C 	C 	0.1372	0.4827	0.1956	0.322
Mof_C 	C 	0.2274	0.4407	0.2073	-0.067
Mof_C 	C 	0.2616	0.418	0.3319	-0.01
Mof_H 	H 	0.2284	0.4282	0.4058	0.059
Mof_C 	C 	0.346	0.3799	0.3441	-0.05
Mof_H 	H 	0.3696	0.3642	0.4263	0.056
Mof_C 	C 	0.3949	0.3654	0.2322	-0.019
Mof_C 	C 	0.3618	0.3883	0.1084	-0.054
Mof_H 	H 	0.3955	0.3785	0.0348	0.061
Mof_C 	C 	0.2773	0.4263	0.0967	-0.01
Mof_H 	H 	0.254	0.4422	0.0144	0.055
Mof_Cd	Cd	0.98452	0.57303	0.08055	0.54
Mof_O 	O 	0.1149	0.5094	0.2965	-0.28
Mof_O 	O 	0.09	0.4905	0.0809	-0.297
Mof_O 	O 	0.1211	0.629	0.1393	-0.286
Mof_O 	O 	0.1198	0.6432	0.3594	-0.29
Mof_O 	O 	0.4954	0.8662	0.1275	-0.229
Mof_O 	O 	0.4955	0.2817	0.372	-0.227
Mof_C 	C 	0.3287	0.7855	0.34	-0.027
Mof_H 	H 	0.3362	0.8166	0.4039	0.05
Mof_C 	C 	0.2486	0.7437	0.338	0.016
Mof_H 	H 	0.2011	0.7475	0.3998	0.032
Mof_C 	C 	0.305	0.6908	0.154	-0.055
Mof_H 	H 	0.2954	0.6595	0.0906	0.049
Mof_C 	C 	0.387	0.7309	0.152	-0.1
Mof_H 	H 	0.4348	0.7255	0.0909	0.073
Mof_C 	C 	0.6033	0.7802	0.2546	-0.01
Mof_C 	C 	0.7599	0.6969	0.2541	-0.063
Mof_C 	C 	0.6367	0.7635	0.1357	-0.044
Mof_H 	H 	0.6082	0.7802	0.0566	0.062
Mof_C 	C 	0.7156	0.7202	0.1382	-0.031
Mof_H 	H 	0.7383	0.7071	0.0588	0.041
Mof_C 	C 	0.7215	0.7141	0.3749	0.048
Mof_H 	H 	0.7492	0.6971	0.4541	0.019
Mof_C 	C 	0.6424	0.7564	0.3752	0.027
Mof_H 	H 	0.6167	0.7683	0.4537	0.041
Mof_C 	C 	0.8466	0.6525	0.2522	0.317
Mof_C 	C 	0.8628	0.4827	0.3044	0.324
Mof_C 	C 	0.7726	0.4407	0.2927	-0.065
Mof_C 	C 	0.7384	0.418	0.1681	-0.009
Mof_H 	H 	0.7716	0.4282	0.0942	0.06
Mof_C 	C 	0.654	0.3799	0.1559	-0.048
Mof_H 	H 	0.6304	0.3642	0.0737	0.056
Mof_C 	C 	0.6051	0.3654	0.2678	-0.017
Mof_C 	C 	0.6382	0.3883	0.3916	-0.054
Mof_H 	H 	0.6045	0.3785	0.4652	0.061
Mof_C 	C 	0.7227	0.4263	0.4033	-0.009
Mof_H 	H 	0.746	0.4422	0.4856	0.053
Mof_Cd	Cd	0.01548	0.57303	0.41945	0.49
Mof_O 	O 	0.8851	0.5094	0.2035	-0.272
Mof_O 	O 	0.91	0.4905	0.4191	-0.281
Mof_O 	O 	0.8789	0.629	0.3607	-0.27
Mof_O 	O 	0.8802	0.6432	0.1406	-0.281
Mof_O 	O 	0.5046	0.8662	0.3725	-0.229
Mof_O 	O 	0.5045	0.2817	0.128	-0.226
Mof_C 	C 	0.6713	0.7855	0.16	-0.026
Mof_H 	H 	0.6638	0.8166	0.0961	0.051
Mof_C 	C 	0.7514	0.7437	0.162	0.014
Mof_H 	H 	0.7989	0.7475	0.1002	0.036
Mof_C 	C 	0.695	0.6908	0.346	-0.06
Mof_H 	H 	0.7046	0.6595	0.4094	0.05
Mof_C 	C 	0.613	0.7309	0.348	-0.104
Mof_H 	H 	0.5652	0.7255	0.4091	0.074
Mof_S 	S 	0.5	0.16852	0.75	0.279
Mof_S 	S 	0.5	0.68504	0.75	0.286
Mof_S 	S 	0.5	0.83148	0.25	0.279
Mof_S 	S 	0.5	0.31496	0.25	0.286
_end
