data_functionalizedCrystal
_audit_creation_method	'EQeq! by Chris Wilmer'
_symmetry_space_group_name_H-M	'P1'
_symmetry_Int_Tables_number	1
_symmetry_cell_setting	triclinic
loop_
_symmetry_equiv_pos_as_xyz
  x,y,z
_cell_length_a	15.1658
_cell_length_b	15.1658
_cell_length_c	12.0568
_cell_angle_alpha	90
_cell_angle_beta	90
_cell_angle_gamma	90
loop_
_atom_site_label
_atom_site_type_symbol
_atom_site_fract_x
_atom_site_fract_y
_atom_site_fract_z
_atom_site_charge
Mof_O 	O 	0.6195	0.3814	0.6082	-0.455
Mof_O 	O 	0.5969	0.2885	0.7469	-0.495
Mof_C 	C 	0.5887	0.3631	0.7024	0.412
Mof_C 	C 	0.54138	0.43165	0.7628	-0.109
Mof_C 	C 	0.54138	0.43165	0.8789	-0.016
Mof_H 	H 	0.5724	0.3804	0.9224	0.062
Mof_O 	O 	0.1195	0.8814	0.1082	-0.48
Mof_O 	O 	0.0969	0.7885	0.2469	-0.507
Mof_C 	C 	0.0887	0.8631	0.2024	0.421
Mof_C 	C 	0.04138	0.93165	0.2628	-0.126
Mof_C 	C 	0.04138	0.93165	0.3789	0.049
Mof_H 	H 	0.0724	0.8804	0.4224	0.021
Mof_O 	O 	0.8805	0.1186	0.1082	-0.485
Mof_O 	O 	0.9031	0.2115	0.2469	-0.507
Mof_C 	C 	0.9113	0.1369	0.2024	0.422
Mof_C 	C 	0.95862	0.06835	0.2628	-0.136
Mof_C 	C 	0.95862	0.06835	0.3789	0.038
Mof_H 	H 	0.9276	0.1196	0.4224	0.022
Mof_O 	O 	0.3805	0.6186	0.6082	-0.456
Mof_O 	O 	0.4031	0.7115	0.7469	-0.493
Mof_C 	C 	0.4113	0.6369	0.7024	0.412
Mof_C 	C 	0.45862	0.56835	0.7628	-0.108
Mof_C 	C 	0.45862	0.56835	0.8789	-0.016
Mof_H 	H 	0.4276	0.6196	0.9224	0.063
Mof_O 	O 	0.6186	0.1195	0.8582	-0.489
Mof_O 	O 	0.7115	0.0969	0.9969	-0.494
Mof_C 	C 	0.6369	0.0887	0.9524	0.575
Mof_C 	C 	0.56835	0.04138	0.0128	-0.426
Mof_C 	C 	0.56835	0.04138	0.1289	0.161
Mof_H 	H 	0.6196	0.0724	0.1724	-0.024
Mof_O 	O 	0.1186	0.6195	0.3582	-0.465
Mof_O 	O 	0.2115	0.5969	0.4969	-0.505
Mof_C 	C 	0.1369	0.5887	0.4524	0.424
Mof_C 	C 	0.06835	0.54138	0.5128	-0.148
Mof_C 	C 	0.06835	0.54138	0.6289	0.047
Mof_H 	H 	0.1196	0.5724	0.6724	0.02
Mof_O 	O 	0.8814	0.3805	0.3582	-0.463
Mof_O 	O 	0.7885	0.4031	0.4969	-0.503
Mof_C 	C 	0.8631	0.4113	0.4524	0.424
Mof_C 	C 	0.93165	0.45862	0.5128	-0.14
Mof_C 	C 	0.93165	0.45862	0.6289	0.056
Mof_H 	H 	0.8804	0.4276	0.6724	0.02
Mof_O 	O 	0.3814	0.8805	0.8582	-0.482
Mof_O 	O 	0.2885	0.9031	0.9969	-0.489
Mof_C 	C 	0.3631	0.9113	0.9524	0.576
Mof_C 	C 	0.43165	0.95862	0.0128	-0.411
Mof_C 	C 	0.43165	0.95862	0.1289	0.18
Mof_H 	H 	0.3804	0.9276	0.1724	-0.025
Mof_O 	O 	0.8805	0.3814	0.1418	-0.426
Mof_O 	O 	0.9031	0.2885	0.0031	-0.502
Mof_C 	C 	0.9113	0.3631	0.0476	0.257
Mof_C 	C 	0.95862	0.43165	0.9872	0.169
Mof_C 	C 	0.95862	0.43165	0.8711	-0.105
Mof_H 	H 	0.9276	0.3804	0.8276	0.074
Mof_O 	O 	0.3805	0.8814	0.6418	-0.448
Mof_O 	O 	0.4031	0.7885	0.5031	-0.5
Mof_C 	C 	0.4113	0.8631	0.5476	0.412
Mof_C 	C 	0.45862	0.93165	0.4872	-0.104
Mof_C 	C 	0.45862	0.93165	0.3711	0.022
Mof_H 	H 	0.4276	0.8804	0.3276	0.028
Mof_O 	O 	0.6195	0.1186	0.6418	-0.456
Mof_O 	O 	0.5969	0.2115	0.5031	-0.503
Mof_C 	C 	0.5887	0.1369	0.5476	0.414
Mof_C 	C 	0.54138	0.06835	0.4872	-0.122
Mof_C 	C 	0.54138	0.06835	0.3711	0.003
Mof_H 	H 	0.5724	0.1196	0.3276	0.029
Mof_O 	O 	0.1195	0.6186	0.1418	-0.43
Mof_O 	O 	0.0969	0.7115	0.0031	-0.503
Mof_C 	C 	0.0887	0.6369	0.0476	0.259
Mof_C 	C 	0.04138	0.56835	0.9872	0.161
Mof_C 	C 	0.04138	0.56835	0.8711	-0.113
Mof_H 	H 	0.0724	0.6196	0.8276	0.075
Mof_O 	O 	0.8814	0.1195	0.8918	-0.422
Mof_O 	O 	0.7885	0.0969	0.7531	-0.497
Mof_C 	C 	0.8631	0.0887	0.7976	0.408
Mof_C 	C 	0.93165	0.04138	0.7372	-0.11
Mof_C 	C 	0.93165	0.04138	0.6211	0.027
Mof_H 	H 	0.8804	0.0724	0.5776	0.025
Mof_O 	O 	0.3814	0.6195	0.3918	-0.463
Mof_O 	O 	0.2885	0.5969	0.2531	-0.514
Mof_C 	C 	0.3631	0.5887	0.2976	0.43
Mof_C 	C 	0.43165	0.54138	0.2372	-0.167
Mof_C 	C 	0.43165	0.54138	0.1211	0.067
Mof_H 	H 	0.3804	0.5724	0.0776	-0.012
Mof_O 	O 	0.6186	0.3805	0.3918	-0.464
Mof_O 	O 	0.7115	0.4031	0.2531	-0.512
Mof_C 	C 	0.6369	0.4113	0.2976	0.43
Mof_C 	C 	0.56835	0.45862	0.2372	-0.167
Mof_C 	C 	0.56835	0.45862	0.1211	0.067
Mof_H 	H 	0.6196	0.4276	0.0776	-0.011
Mof_O 	O 	0.1186	0.8805	0.8918	-0.418
Mof_O 	O 	0.2115	0.9031	0.7531	-0.493
Mof_C 	C 	0.1369	0.9113	0.7976	0.407
Mof_C 	C 	0.06835	0.95862	0.7372	-0.099
Mof_C 	C 	0.06835	0.95862	0.6211	0.039
Mof_H 	H 	0.1196	0.9276	0.5776	0.025
Mof_V 	V 	0.698	0.302	0.5	1.79
Mof_V 	V 	0.198	0.802	-0	1.758
Mof_V 	V 	0.802	0.198	-0	1.758
Mof_V 	V 	0.302	0.698	0.5	1.79
Mof_V 	V 	0.698	0.198	0.75	1.791
Mof_V 	V 	0.198	0.698	0.25	1.789
Mof_V 	V 	0.802	0.302	0.25	1.789
Mof_V 	V 	0.302	0.802	0.75	1.791
Mof_O 	O 	0.7509	0.25	0.625	-0.788
Mof_H 	H 	0.8218	0.25	0.625	0.146
Mof_O 	O 	0.2509	0.75	0.125	-0.798
Mof_H 	H 	0.3218	0.75	0.125	0.131
Mof_O 	O 	0.7491	0.25	0.125	-0.798
Mof_H 	H 	0.6782	0.25	0.125	0.131
Mof_O 	O 	0.2491	0.75	0.625	-0.787
Mof_H 	H 	0.1782	0.75	0.625	0.146
Mof_O 	O 	0.75	0.2509	0.875	-0.765
Mof_H 	H 	0.75	0.3218	0.875	0.159
Mof_O 	O 	0.25	0.7509	0.375	-0.788
Mof_H 	H 	0.25	0.8218	0.375	0.145
Mof_O 	O 	0.75	0.2491	0.375	-0.788
Mof_H 	H 	0.75	0.1782	0.375	0.143
Mof_O 	O 	0.25	0.7491	0.875	-0.765
Mof_H 	H 	0.25	0.6782	0.875	0.158
Mof_C 	C 	0.5	0.5	0.7048	0.065
Mof_C 	C 	0.5	0.5	0.9369	0.102
Mof_H 	H 	0.5	0.5	0.6177	0.053
Mof_C 	C 	-5.27422e-34	0	0.2048	0.049
Mof_C 	C 	1.3023e-33	0	0.4369	-0.05
Mof_H 	H 	3.50837e-34	0	0.1177	0.029
Mof_C 	C 	0.5	0	0.9548	0.394
Mof_C 	C 	0.5	1.13788e-33	0.1869	-0.146
Mof_H 	H 	0.5	0	0.8677	-0.032
Mof_C 	C 	-3.19588e-33	0.5	0.4548	0.082
Mof_C 	C 	1.11506e-32	0.5	0.6869	-0.064
Mof_H 	H 	1.09603e-33	0.5	0.3677	0.04
Mof_C 	C 	-2.99445e-33	0.5	0.0452	-0.269
Mof_C 	C 	1.15267e-32	0.5	0.8131	0.086
Mof_H 	H 	-3.01929e-33	0.5	0.1323	0.128
Mof_C 	C 	0.5	0	0.5452	0.046
Mof_C 	C 	0.5	0	0.3131	0.002
Mof_H 	H 	0.5	4.55153e-33	0.6323	0.055
Mof_C 	C 	2.37031e-33	4.55153e-33	0.7952	0.036
Mof_C 	C 	1.67847e-33	0	0.5631	-0.039
Mof_H 	H 	2.62993e-33	0	0.8823	0.068
Mof_C 	C 	0.5	0.5	0.2952	0.103
Mof_C 	C 	0.5	0.5	0.0631	-0.136
Mof_H 	H 	0.5	0.5	0.3823	0.041
_end
