data_functionalizedCrystal
_audit_creation_method	'EQeq! by Chris Wilmer'
_symmetry_space_group_name_H-M	'P1'
_symmetry_Int_Tables_number	1
_symmetry_cell_setting	triclinic
loop_
_symmetry_equiv_pos_as_xyz
  x,y,z
_cell_length_a	9.0229
_cell_length_b	21.6107
_cell_length_c	24.0491
_cell_angle_alpha	90
_cell_angle_beta	90
_cell_angle_gamma	90
loop_
_atom_site_label
_atom_site_type_symbol
_atom_site_fract_x
_atom_site_fract_y
_atom_site_fract_z
_atom_site_charge
Mof_C 	C 	0.0262	0.1871	0.0698	0.283
Mof_H 	H 	0.9597	0.2101	0.0479	-0.1
Mof_N 	N 	0.1679	0.19374	0.06053	-0.302
Mof_C 	C 	0.9684	0.1482	0.11	-0.408
Mof_H 	H 	0.8656	0.1444	0.1153	0.181
Mof_C 	C 	0.0671	0.11512	0.14197	0.386
Mof_C 	C 	0.213	0.1231	0.1335	-0.356
Mof_H 	H 	0.2822	0.1016	0.1555	0.154
Mof_C 	C 	0.2601	0.1625	0.0931	0.211
Mof_H 	H 	0.3626	0.1679	0.088	-0.056
Mof_O 	O 	0.004	0.07732	0.18059	-0.237
Mof_C 	C 	0.1013	0.03983	0.2134	-0.043
Mof_H 	H 	0.166	0.0658	0.2364	0.073
Mof_H 	H 	0.1631	0.0137	0.1895	0.074
Mof_C 	C 	0.5262	0.6871	0.0698	0.174
Mof_H 	H 	0.4597	0.7101	0.0479	-0.051
Mof_N 	N 	0.6679	0.69374	0.06053	-0.278
Mof_C 	C 	0.4684	0.6482	0.11	-0.291
Mof_H 	H 	0.3656	0.6444	0.1153	0.147
Mof_C 	C 	0.5671	0.61512	0.14197	0.316
Mof_C 	C 	0.713	0.6231	0.1335	-0.309
Mof_H 	H 	0.7822	0.6016	0.1555	0.136
Mof_C 	C 	0.7601	0.6625	0.0931	0.179
Mof_H 	H 	0.8626	0.6679	0.088	-0.049
Mof_O 	O 	0.504	0.57732	0.18059	-0.234
Mof_C 	C 	0.6013	0.53983	0.2134	-0.026
Mof_H 	H 	0.666	0.5658	0.2364	0.067
Mof_H 	H 	0.6631	0.5137	0.1895	0.067
Mof_C 	C 	0.9738	0.8129	0.0698	0.059
Mof_H 	H 	0.0403	0.7899	0.0479	0
Mof_N 	N 	0.8321	0.80626	0.06053	-0.252
Mof_C 	C 	0.0316	0.8518	0.11	-0.167
Mof_H 	H 	0.1344	0.8556	0.1153	0.106
Mof_C 	C 	0.9329	0.88488	0.14197	0.237
Mof_C 	C 	0.787	0.8769	0.1335	-0.253
Mof_H 	H 	0.7178	0.8984	0.1555	0.12
Mof_C 	C 	0.7399	0.8375	0.0931	0.143
Mof_H 	H 	0.6374	0.8321	0.088	-0.033
Mof_O 	O 	0.996	0.92268	0.18059	-0.22
Mof_C 	C 	0.8987	0.96017	0.2134	-0.079
Mof_H 	H 	0.834	0.9342	0.2364	0.081
Mof_H 	H 	0.8369	0.9863	0.1895	0.079
Mof_C 	C 	0.4738	0.3129	0.0698	0.173
Mof_H 	H 	0.5403	0.2899	0.0479	-0.052
Mof_N 	N 	0.3321	0.30626	0.06053	-0.277
Mof_C 	C 	0.5316	0.3518	0.11	-0.29
Mof_H 	H 	0.6344	0.3556	0.1153	0.143
Mof_C 	C 	0.4329	0.38488	0.14197	0.315
Mof_C 	C 	0.287	0.3769	0.1335	-0.307
Mof_H 	H 	0.2178	0.3984	0.1555	0.14
Mof_C 	C 	0.2399	0.3375	0.0931	0.178
Mof_H 	H 	0.1374	0.3321	0.088	-0.04
Mof_O 	O 	0.496	0.42268	0.18059	-0.234
Mof_C 	C 	0.3987	0.46017	0.2134	-0.027
Mof_H 	H 	0.334	0.4342	0.2364	0.068
Mof_H 	H 	0.3369	0.4863	0.1895	0.067
Mof_C 	C 	0.9738	0.1871	0.4302	0.06
Mof_H 	H 	0.0403	0.2101	0.4521	0.004
Mof_N 	N 	0.8321	0.19374	0.43947	-0.25
Mof_C 	C 	0.0316	0.1482	0.39	-0.166
Mof_H 	H 	0.1344	0.1444	0.3847	0.107
Mof_C 	C 	0.9329	0.11512	0.35803	0.238
Mof_C 	C 	0.787	0.1231	0.3665	-0.253
Mof_H 	H 	0.7178	0.1016	0.3445	0.119
Mof_C 	C 	0.7399	0.1625	0.4069	0.144
Mof_H 	H 	0.6374	0.1679	0.412	-0.032
Mof_O 	O 	0.996	0.07732	0.31941	-0.22
Mof_C 	C 	0.8987	0.03983	0.2866	-0.075
Mof_H 	H 	0.834	0.0658	0.2636	0.079
Mof_H 	H 	0.8369	0.0137	0.3105	0.08
Mof_C 	C 	0.4738	0.6871	0.4302	0.173
Mof_H 	H 	0.5403	0.7101	0.4521	-0.047
Mof_N 	N 	0.3321	0.69374	0.43947	-0.274
Mof_C 	C 	0.5316	0.6482	0.39	-0.288
Mof_H 	H 	0.6344	0.6444	0.3847	0.144
Mof_C 	C 	0.4329	0.61512	0.35803	0.315
Mof_C 	C 	0.287	0.6231	0.3665	-0.306
Mof_H 	H 	0.2178	0.6016	0.3445	0.14
Mof_C 	C 	0.2399	0.6625	0.4069	0.179
Mof_H 	H 	0.1374	0.6679	0.412	-0.039
Mof_O 	O 	0.496	0.57732	0.31941	-0.234
Mof_C 	C 	0.3987	0.53983	0.2866	-0.027
Mof_H 	H 	0.334	0.5658	0.2636	0.068
Mof_H 	H 	0.3369	0.5137	0.3105	0.067
Mof_C 	C 	0.0262	0.8129	0.4302	0.285
Mof_H 	H 	0.9597	0.7899	0.4521	-0.097
Mof_N 	N 	0.1679	0.80626	0.43947	-0.3
Mof_C 	C 	0.9684	0.8518	0.39	-0.408
Mof_H 	H 	0.8656	0.8556	0.3847	0.182
Mof_C 	C 	0.0671	0.88488	0.35803	0.387
Mof_C 	C 	0.213	0.8769	0.3665	-0.356
Mof_H 	H 	0.2822	0.8984	0.3445	0.155
Mof_C 	C 	0.2601	0.8375	0.4069	0.213
Mof_H 	H 	0.3626	0.8321	0.412	-0.054
Mof_O 	O 	0.004	0.92268	0.31941	-0.237
Mof_C 	C 	0.1013	0.96017	0.2866	-0.046
Mof_H 	H 	0.166	0.9342	0.2636	0.075
Mof_H 	H 	0.1631	0.9863	0.3105	0.072
Mof_C 	C 	0.5262	0.3129	0.4302	0.174
Mof_H 	H 	0.4597	0.2899	0.4521	-0.047
Mof_N 	N 	0.6679	0.30626	0.43947	-0.276
Mof_C 	C 	0.4684	0.3518	0.39	-0.29
Mof_H 	H 	0.3656	0.3556	0.3847	0.147
Mof_C 	C 	0.5671	0.38488	0.35803	0.316
Mof_C 	C 	0.713	0.3769	0.3665	-0.308
Mof_H 	H 	0.7822	0.3984	0.3445	0.136
Mof_C 	C 	0.7601	0.3375	0.4069	0.18
Mof_H 	H 	0.8626	0.3321	0.412	-0.048
Mof_O 	O 	0.504	0.42268	0.31941	-0.234
Mof_C 	C 	0.6013	0.46017	0.2866	-0.026
Mof_H 	H 	0.666	0.4342	0.2636	0.067
Mof_H 	H 	0.6631	0.4863	0.3105	0.067
Mof_C 	C 	0.9738	0.8129	0.9302	0.06
Mof_H 	H 	0.0403	0.7899	0.9521	0.009
Mof_N 	N 	0.8321	0.80626	0.93947	-0.245
Mof_C 	C 	0.0316	0.8518	0.89	-0.163
Mof_H 	H 	0.1344	0.8556	0.8847	0.107
Mof_C 	C 	0.9329	0.88488	0.85803	0.237
Mof_C 	C 	0.787	0.8769	0.8665	-0.251
Mof_H 	H 	0.7178	0.8984	0.8445	0.119
Mof_C 	C 	0.7399	0.8375	0.9069	0.145
Mof_H 	H 	0.6374	0.8321	0.912	-0.029
Mof_O 	O 	0.996	0.92268	0.81941	-0.219
Mof_C 	C 	0.8987	0.96017	0.7866	-0.078
Mof_H 	H 	0.834	0.9342	0.7636	0.081
Mof_H 	H 	0.8369	0.9863	0.8105	0.079
Mof_C 	C 	0.4738	0.3129	0.9302	0.174
Mof_H 	H 	0.5403	0.2899	0.9521	-0.042
Mof_N 	N 	0.3321	0.30626	0.93947	-0.27
Mof_C 	C 	0.5316	0.3518	0.89	-0.287
Mof_H 	H 	0.6344	0.3556	0.8847	0.144
Mof_C 	C 	0.4329	0.38488	0.85803	0.315
Mof_C 	C 	0.287	0.3769	0.8665	-0.305
Mof_H 	H 	0.2178	0.3984	0.8445	0.14
Mof_C 	C 	0.2399	0.3375	0.9069	0.18
Mof_H 	H 	0.1374	0.3321	0.912	-0.037
Mof_O 	O 	0.496	0.42268	0.81941	-0.234
Mof_C 	C 	0.3987	0.46017	0.7866	-0.027
Mof_H 	H 	0.334	0.4342	0.7636	0.068
Mof_H 	H 	0.3369	0.4863	0.8105	0.067
Mof_C 	C 	0.0262	0.1871	0.9302	0.283
Mof_H 	H 	0.9597	0.2101	0.9521	-0.091
Mof_N 	N 	0.1679	0.19374	0.93947	-0.295
Mof_C 	C 	0.9684	0.1482	0.89	-0.404
Mof_H 	H 	0.8656	0.1444	0.8847	0.182
Mof_C 	C 	0.0671	0.11512	0.85803	0.386
Mof_C 	C 	0.213	0.1231	0.8665	-0.354
Mof_H 	H 	0.2822	0.1016	0.8445	0.154
Mof_C 	C 	0.2601	0.1625	0.9069	0.212
Mof_H 	H 	0.3626	0.1679	0.912	-0.052
Mof_O 	O 	0.004	0.07732	0.81941	-0.237
Mof_C 	C 	0.1013	0.03983	0.7866	-0.043
Mof_H 	H 	0.166	0.0658	0.7636	0.073
Mof_H 	H 	0.1631	0.0137	0.8105	0.073
Mof_C 	C 	0.5262	0.6871	0.9302	0.175
Mof_H 	H 	0.4597	0.7101	0.9521	-0.041
Mof_N 	N 	0.6679	0.69374	0.93947	-0.271
Mof_C 	C 	0.4684	0.6482	0.89	-0.287
Mof_H 	H 	0.3656	0.6444	0.8847	0.148
Mof_C 	C 	0.5671	0.61512	0.85803	0.316
Mof_C 	C 	0.713	0.6231	0.8665	-0.307
Mof_H 	H 	0.7822	0.6016	0.8445	0.135
Mof_C 	C 	0.7601	0.6625	0.9069	0.181
Mof_H 	H 	0.8626	0.6679	0.912	-0.046
Mof_O 	O 	0.504	0.57732	0.81941	-0.234
Mof_C 	C 	0.6013	0.53983	0.7866	-0.026
Mof_H 	H 	0.666	0.5658	0.7636	0.067
Mof_H 	H 	0.6631	0.5137	0.8105	0.067
Mof_C 	C 	0.0262	0.8129	0.5698	0.285
Mof_H 	H 	0.9597	0.7899	0.5479	-0.097
Mof_N 	N 	0.1679	0.80626	0.56053	-0.3
Mof_C 	C 	0.9684	0.8518	0.61	-0.408
Mof_H 	H 	0.8656	0.8556	0.6153	0.182
Mof_C 	C 	0.0671	0.88488	0.64197	0.387
Mof_C 	C 	0.213	0.8769	0.6335	-0.356
Mof_H 	H 	0.2822	0.8984	0.6555	0.155
Mof_C 	C 	0.2601	0.8375	0.5931	0.213
Mof_H 	H 	0.3626	0.8321	0.588	-0.054
Mof_O 	O 	0.004	0.92268	0.68059	-0.237
Mof_C 	C 	0.1013	0.96017	0.7134	-0.046
Mof_H 	H 	0.166	0.9342	0.7364	0.075
Mof_H 	H 	0.1631	0.9863	0.6895	0.072
Mof_C 	C 	0.5262	0.3129	0.5698	0.174
Mof_H 	H 	0.4597	0.2899	0.5479	-0.047
Mof_N 	N 	0.6679	0.30626	0.56053	-0.276
Mof_C 	C 	0.4684	0.3518	0.61	-0.29
Mof_H 	H 	0.3656	0.3556	0.6153	0.147
Mof_C 	C 	0.5671	0.38488	0.64197	0.316
Mof_C 	C 	0.713	0.3769	0.6335	-0.308
Mof_H 	H 	0.7822	0.3984	0.6555	0.136
Mof_C 	C 	0.7601	0.3375	0.5931	0.18
Mof_H 	H 	0.8626	0.3321	0.588	-0.048
Mof_O 	O 	0.504	0.42268	0.68059	-0.234
Mof_C 	C 	0.6013	0.46017	0.7134	-0.026
Mof_H 	H 	0.666	0.4342	0.7364	0.066
Mof_H 	H 	0.6631	0.4863	0.6895	0.067
Mof_C 	C 	0.9738	0.1871	0.5698	0.06
Mof_H 	H 	0.0403	0.2101	0.5479	0.004
Mof_N 	N 	0.8321	0.19374	0.56053	-0.25
Mof_C 	C 	0.0316	0.1482	0.61	-0.166
Mof_H 	H 	0.1344	0.1444	0.6153	0.107
Mof_C 	C 	0.9329	0.11512	0.64197	0.238
Mof_C 	C 	0.787	0.1231	0.6335	-0.253
Mof_H 	H 	0.7178	0.1016	0.6555	0.119
Mof_C 	C 	0.7399	0.1625	0.5931	0.144
Mof_H 	H 	0.6374	0.1679	0.588	-0.032
Mof_O 	O 	0.996	0.07732	0.68059	-0.22
Mof_C 	C 	0.8987	0.03983	0.7134	-0.075
Mof_H 	H 	0.834	0.0658	0.7364	0.079
Mof_H 	H 	0.8369	0.0137	0.6895	0.08
Mof_C 	C 	0.4738	0.6871	0.5698	0.173
Mof_H 	H 	0.5403	0.7101	0.5479	-0.047
Mof_N 	N 	0.3321	0.69374	0.56053	-0.274
Mof_C 	C 	0.5316	0.6482	0.61	-0.289
Mof_H 	H 	0.6344	0.6444	0.6153	0.144
Mof_C 	C 	0.4329	0.61512	0.64197	0.315
Mof_C 	C 	0.287	0.6231	0.6335	-0.306
Mof_H 	H 	0.2178	0.6016	0.6555	0.14
Mof_C 	C 	0.2399	0.6625	0.5931	0.179
Mof_H 	H 	0.1374	0.6679	0.588	-0.039
Mof_O 	O 	0.496	0.57732	0.68059	-0.234
Mof_C 	C 	0.3987	0.53983	0.7134	-0.027
Mof_H 	H 	0.334	0.5658	0.7364	0.068
Mof_H 	H 	0.3369	0.5137	0.6895	0.067
Mof_Cu	Cu	0.25	0.25	-0	0.85
Mof_Cu	Cu	0.75	0.75	-0	0.845
Mof_Cu	Cu	0.75	0.25	0.5	0.853
Mof_Cu	Cu	0.25	0.75	0.5	0.858
Mof_C 	C 	-2.8848e-33	2.69158e-33	0.25	0.12
Mof_C 	C 	0.5	0.5	0.25	0.065
Mof_C 	C 	-1.40375e-32	0	0.75	0.12
Mof_C 	C 	0.5	0.5	0.75	0.065
Mof_H 	H 	0.0238	0.489	0.236	0.237
Mof_H 	H 	0.9054	0.4641	0.278	0.159
Mof_O 	O 	0.956	0.5305	0.3346	-0.413
Mof_H 	H 	0.966	0.5455	0.2959	0.282
Mof_H 	H 	0.0528	0.5394	0.3521	0.186
Mof_O 	O 	0.183	0.522	0.8692	-0.328
Mof_H 	H 	0.2031	0.5542	0.8975	0.194
Mof_H 	H 	0.1915	0.4824	0.8897	0.125
Mof_O 	O 	0.053	0.5029	0.4554	-0.226
Mof_H 	H 	0.0213	0.4786	0.4882	0.138
Mof_H 	H 	0.0154	0.4793	0.4231	0.425
Mof_O 	O 	0.08	0.5366	0.0638	-0.603
Mof_H 	H 	0.0811	0.5143	0.0998	0.098
Mof_H 	H 	0.167	0.5201	0.0398	0.209
Mof_O 	O 	0.914	0.6211	0.2804	-0.451
Mof_H 	H 	0.874	0.6044	0.3158	0.206
Mof_H 	H 	0.9866	0.5898	0.268	0.363
Mof_H 	H 	0.9762	0.511	0.236	0.097
Mof_H 	H 	0.0946	0.5359	0.278	0.124
Mof_O 	O 	0.044	0.4695	0.3346	-0.368
Mof_H 	H 	0.034	0.4545	0.2959	0.286
Mof_H 	H 	0.9472	0.4606	0.3521	0.151
Mof_O 	O 	0.817	0.478	0.8692	-0.319
Mof_H 	H 	0.7969	0.4458	0.8975	0.179
Mof_H 	H 	0.8085	0.5176	0.8897	0.122
Mof_O 	O 	0.947	0.4971	0.4554	-0.329
Mof_H 	H 	0.9787	0.5214	0.4882	0.121
Mof_H 	H 	0.9846	0.5207	0.4231	0.315
Mof_O 	O 	0.92	0.4634	0.0638	-0.506
Mof_H 	H 	0.9189	0.4857	0.0998	0.103
Mof_H 	H 	0.833	0.4799	0.0398	0.203
Mof_O 	O 	0.086	0.3789	0.2804	-0.447
Mof_H 	H 	0.126	0.3956	0.3158	0.209
Mof_H 	H 	0.0134	0.4102	0.268	0.397
Mof_H 	H 	0.9762	0.489	0.264	0.096
Mof_H 	H 	0.0946	0.4641	0.222	0.124
Mof_O 	O 	0.044	0.5305	0.1654	-0.368
Mof_H 	H 	0.034	0.5455	0.2041	0.286
Mof_H 	H 	0.9472	0.5394	0.1479	0.151
Mof_O 	O 	0.817	0.522	0.6308	-0.322
Mof_H 	H 	0.7969	0.5542	0.6025	0.179
Mof_H 	H 	0.8085	0.4824	0.6103	0.118
Mof_O 	O 	0.947	0.5029	0.0446	-0.224
Mof_H 	H 	0.9787	0.4786	0.0118	-0.056
Mof_H 	H 	0.9846	0.4793	0.0769	0.268
Mof_O 	O 	0.92	0.5366	0.4362	-0.507
Mof_H 	H 	0.9189	0.5143	0.4002	0.085
Mof_H 	H 	0.833	0.5201	0.4602	0.222
Mof_O 	O 	0.086	0.6211	0.2196	-0.447
Mof_H 	H 	0.126	0.6044	0.1842	0.209
Mof_H 	H 	0.0134	0.5898	0.232	0.398
Mof_H 	H 	0.0238	0.511	0.264	0.239
Mof_H 	H 	0.9054	0.5359	0.222	0.159
Mof_O 	O 	0.956	0.4695	0.1654	-0.413
Mof_H 	H 	0.966	0.4545	0.2041	0.282
Mof_H 	H 	0.0528	0.4606	0.1479	0.187
Mof_O 	O 	0.183	0.478	0.6308	-0.331
Mof_H 	H 	0.2031	0.4458	0.6025	0.194
Mof_H 	H 	0.1915	0.5176	0.6103	0.122
Mof_O 	O 	0.053	0.4971	0.0446	-0.122
Mof_H 	H 	0.0213	0.5214	0.0118	-0.039
Mof_H 	H 	0.0154	0.5207	0.0769	0.378
Mof_O 	O 	0.08	0.4634	0.4362	-0.604
Mof_H 	H 	0.0811	0.4857	0.4002	0.081
Mof_H 	H 	0.167	0.4799	0.4602	0.228
Mof_O 	O 	0.914	0.3789	0.2196	-0.451
Mof_H 	H 	0.874	0.3956	0.1842	0.206
Mof_H 	H 	0.9866	0.4102	0.232	0.363
Mof_H 	H 	0.9762	0.511	0.764	0.097
Mof_H 	H 	0.0946	0.5359	0.722	0.124
Mof_O 	O 	0.044	0.4695	0.6654	-0.368
Mof_H 	H 	0.034	0.4545	0.7041	0.286
Mof_H 	H 	0.9472	0.4606	0.6479	0.151
Mof_O 	O 	0.817	0.478	0.1308	-0.325
Mof_H 	H 	0.7969	0.4458	0.1025	0.179
Mof_H 	H 	0.8085	0.5176	0.1103	0.115
Mof_O 	O 	0.947	0.4971	0.5446	-0.329
Mof_H 	H 	0.9787	0.5214	0.5118	0.121
Mof_H 	H 	0.9846	0.5207	0.5769	0.315
Mof_O 	O 	0.92	0.4634	0.9362	-0.508
Mof_H 	H 	0.9189	0.4857	0.9002	0.068
Mof_H 	H 	0.833	0.4799	0.9602	0.241
Mof_O 	O 	0.086	0.3789	0.7196	-0.447
Mof_H 	H 	0.126	0.3956	0.6842	0.209
Mof_H 	H 	0.0134	0.4102	0.732	0.397
Mof_H 	H 	0.0238	0.489	0.764	0.237
Mof_H 	H 	0.9054	0.4641	0.722	0.159
Mof_O 	O 	0.956	0.5305	0.6654	-0.413
Mof_H 	H 	0.966	0.5455	0.7041	0.282
Mof_H 	H 	0.0528	0.5394	0.6479	0.186
Mof_O 	O 	0.183	0.522	0.1308	-0.334
Mof_H 	H 	0.2031	0.5542	0.1025	0.193
Mof_H 	H 	0.1915	0.4824	0.1103	0.119
Mof_O 	O 	0.053	0.5029	0.5446	-0.226
Mof_H 	H 	0.0213	0.4786	0.5118	0.138
Mof_H 	H 	0.0154	0.4793	0.5769	0.425
Mof_O 	O 	0.08	0.5366	0.9362	-0.605
Mof_H 	H 	0.0811	0.5143	0.9002	0.064
Mof_H 	H 	0.167	0.5201	0.9602	0.247
Mof_O 	O 	0.914	0.6211	0.7196	-0.451
Mof_H 	H 	0.874	0.6044	0.6842	0.206
Mof_H 	H 	0.9866	0.5898	0.732	0.363
Mof_H 	H 	0.0238	0.511	0.736	0.239
Mof_H 	H 	0.9054	0.5359	0.778	0.159
Mof_O 	O 	0.956	0.4695	0.8346	-0.413
Mof_H 	H 	0.966	0.4545	0.7959	0.282
Mof_H 	H 	0.0528	0.4606	0.8521	0.186
Mof_O 	O 	0.183	0.478	0.3692	-0.331
Mof_H 	H 	0.2031	0.4458	0.3975	0.194
Mof_H 	H 	0.1915	0.5176	0.3897	0.122
Mof_O 	O 	0.053	0.4971	0.9554	-0.331
Mof_H 	H 	0.0213	0.5214	0.9882	0.315
Mof_H 	H 	0.0154	0.5207	0.9231	0.472
Mof_O 	O 	0.08	0.4634	0.5638	-0.604
Mof_H 	H 	0.0811	0.4857	0.5998	0.081
Mof_H 	H 	0.167	0.4799	0.5398	0.228
Mof_O 	O 	0.914	0.3789	0.7804	-0.451
Mof_H 	H 	0.874	0.3956	0.8158	0.206
Mof_H 	H 	0.9866	0.4102	0.768	0.363
Mof_H 	H 	0.9762	0.489	0.736	0.096
Mof_H 	H 	0.0946	0.4641	0.778	0.124
Mof_O 	O 	0.044	0.5305	0.8346	-0.367
Mof_H 	H 	0.034	0.5455	0.7959	0.286
Mof_H 	H 	0.9472	0.5394	0.8521	0.15
Mof_O 	O 	0.817	0.522	0.3692	-0.322
Mof_H 	H 	0.7969	0.5542	0.3975	0.179
Mof_H 	H 	0.8085	0.4824	0.3897	0.118
Mof_O 	O 	0.947	0.5029	0.9554	-0.434
Mof_H 	H 	0.9787	0.4786	0.9882	0.298
Mof_H 	H 	0.9846	0.4793	0.9231	0.362
Mof_O 	O 	0.92	0.5366	0.5638	-0.507
Mof_H 	H 	0.9189	0.5143	0.5998	0.085
Mof_H 	H 	0.833	0.5201	0.5398	0.222
Mof_O 	O 	0.086	0.6211	0.7804	-0.446
Mof_H 	H 	0.126	0.6044	0.8158	0.209
Mof_H 	H 	0.0134	0.5898	0.768	0.398
Mof_O 	O 	-8.26795e-33	0.4513	0.25	-1.117
Mof_O 	O 	1.32647e-32	0.5487	0.25	-1.119
Mof_O 	O 	-1.40375e-32	0.5487	0.75	-1.119
Mof_O 	O 	-3.55701e-32	0.4513	0.75	-1.117
Mof_O 	O 	0.683	0.022	0.8692	-0.323
Mof_H 	H 	0.7031	0.0542	0.8975	0.184
Mof_H 	H 	0.6915	0.9824	0.8897	0.12
Mof_O 	O 	0.553	0.0029	0.4554	-0.268
Mof_H 	H 	0.5213	0.9786	0.4882	0.128
Mof_H 	H 	0.5154	0.9793	0.4231	0.37
Mof_O 	O 	0.58	0.0366	0.0638	-0.551
Mof_H 	H 	0.5811	0.0143	0.0998	0.102
Mof_H 	H 	0.667	0.0201	0.0398	0.207
Mof_O 	O 	0.414	0.1211	0.2804	-0.443
Mof_H 	H 	0.374	0.1044	0.3158	0.207
Mof_H 	H 	0.4866	0.0898	0.268	0.368
Mof_H 	H 	0.5238	0.989	0.236	0.279
Mof_H 	H 	0.4054	0.9641	0.278	0.136
Mof_O 	O 	0.456	0.0305	0.3346	-0.389
Mof_H 	H 	0.466	0.0455	0.2959	0.282
Mof_H 	H 	0.5528	0.0394	0.3521	0.17
Mof_O 	O 	0.317	0.978	0.8692	-0.324
Mof_H 	H 	0.2969	0.9458	0.8975	0.189
Mof_H 	H 	0.3085	0.0176	0.8897	0.125
Mof_O 	O 	0.447	0.9971	0.4554	-0.287
Mof_H 	H 	0.4787	0.0214	0.4882	0.13
Mof_H 	H 	0.4846	0.0207	0.4231	0.369
Mof_O 	O 	0.42	0.9634	0.0638	-0.558
Mof_H 	H 	0.4189	0.9857	0.0998	0.1
Mof_H 	H 	0.333	0.9799	0.0398	0.205
Mof_O 	O 	0.586	0.8789	0.2804	-0.47
Mof_H 	H 	0.626	0.8956	0.3158	0.211
Mof_H 	H 	0.5134	0.9102	0.268	0.423
Mof_H 	H 	0.4762	0.011	0.236	0.074
Mof_H 	H 	0.5946	0.0359	0.278	0.161
Mof_O 	O 	0.544	0.9695	0.3346	-0.404
Mof_H 	H 	0.534	0.9545	0.2959	0.304
Mof_H 	H 	0.4472	0.9606	0.3521	0.17
Mof_O 	O 	0.317	0.022	0.6308	-0.324
Mof_H 	H 	0.2969	0.0542	0.6025	0.188
Mof_H 	H 	0.3085	0.9824	0.6103	0.118
Mof_O 	O 	0.447	0.0029	0.0446	-0.164
Mof_H 	H 	0.4787	0.9786	0.0118	-0.048
Mof_H 	H 	0.4846	0.9793	0.0769	0.324
Mof_O 	O 	0.42	0.0366	0.4362	-0.553
Mof_H 	H 	0.4189	0.0143	0.4002	0.085
Mof_H 	H 	0.333	0.0201	0.4602	0.228
Mof_O 	O 	0.586	0.1211	0.2196	-0.444
Mof_H 	H 	0.626	0.1044	0.1842	0.204
Mof_H 	H 	0.5134	0.0898	0.232	0.368
Mof_H 	H 	0.4762	0.989	0.264	0.28
Mof_H 	H 	0.5946	0.9641	0.222	0.137
Mof_O 	O 	0.544	0.0305	0.1654	-0.389
Mof_H 	H 	0.534	0.0455	0.2041	0.282
Mof_H 	H 	0.4472	0.0394	0.1479	0.169
Mof_O 	O 	0.683	0.978	0.6308	-0.329
Mof_H 	H 	0.7031	0.9458	0.6025	0.184
Mof_H 	H 	0.6915	0.0176	0.6103	0.121
Mof_O 	O 	0.553	0.9971	0.0446	-0.183
Mof_H 	H 	0.5213	0.0214	0.0118	-0.046
Mof_H 	H 	0.5154	0.0207	0.0769	0.322
Mof_O 	O 	0.58	0.9634	0.4362	-0.558
Mof_H 	H 	0.5811	0.9857	0.4002	0.083
Mof_H 	H 	0.667	0.9799	0.4602	0.221
Mof_O 	O 	0.414	0.8789	0.2196	-0.469
Mof_H 	H 	0.374	0.8956	0.1842	0.214
Mof_H 	H 	0.4866	0.9102	0.232	0.423
Mof_H 	H 	0.5238	0.011	0.264	0.073
Mof_H 	H 	0.4054	0.0359	0.222	0.16
Mof_O 	O 	0.456	0.9695	0.1654	-0.404
Mof_H 	H 	0.466	0.9545	0.2041	0.305
Mof_H 	H 	0.5528	0.9606	0.1479	0.171
Mof_O 	O 	0.317	0.978	0.1308	-0.33
Mof_H 	H 	0.2969	0.9458	0.1025	0.189
Mof_H 	H 	0.3085	0.0176	0.1103	0.119
Mof_O 	O 	0.447	0.9971	0.5446	-0.287
Mof_H 	H 	0.4787	0.0214	0.5118	0.13
Mof_H 	H 	0.4846	0.0207	0.5769	0.369
Mof_O 	O 	0.42	0.9634	0.9362	-0.56
Mof_H 	H 	0.4189	0.9857	0.9002	0.065
Mof_H 	H 	0.333	0.9799	0.9602	0.243
Mof_O 	O 	0.586	0.8789	0.7196	-0.47
Mof_H 	H 	0.626	0.8956	0.6842	0.211
Mof_H 	H 	0.5134	0.9102	0.732	0.423
Mof_H 	H 	0.4762	0.011	0.764	0.074
Mof_H 	H 	0.5946	0.0359	0.722	0.161
Mof_O 	O 	0.544	0.9695	0.6654	-0.404
Mof_H 	H 	0.534	0.9545	0.7041	0.304
Mof_H 	H 	0.4472	0.9606	0.6479	0.17
Mof_O 	O 	0.683	0.022	0.1308	-0.329
Mof_H 	H 	0.7031	0.0542	0.1025	0.183
Mof_H 	H 	0.6915	0.9824	0.1103	0.114
Mof_O 	O 	0.553	0.0029	0.5446	-0.268
Mof_H 	H 	0.5213	0.9786	0.5118	0.128
Mof_H 	H 	0.5154	0.9793	0.5769	0.37
Mof_O 	O 	0.58	0.0366	0.9362	-0.553
Mof_H 	H 	0.5811	0.0143	0.9002	0.068
Mof_H 	H 	0.667	0.0201	0.9602	0.244
Mof_O 	O 	0.414	0.1211	0.7196	-0.443
Mof_H 	H 	0.374	0.1044	0.6842	0.207
Mof_H 	H 	0.4866	0.0898	0.732	0.368
Mof_H 	H 	0.5238	0.989	0.764	0.279
Mof_H 	H 	0.4054	0.9641	0.722	0.136
Mof_O 	O 	0.456	0.0305	0.6654	-0.389
Mof_H 	H 	0.466	0.0455	0.7041	0.282
Mof_H 	H 	0.5528	0.0394	0.6479	0.17
Mof_O 	O 	0.683	0.978	0.3692	-0.329
Mof_H 	H 	0.7031	0.9458	0.3975	0.184
Mof_H 	H 	0.6915	0.0176	0.3897	0.121
Mof_O 	O 	0.553	0.9971	0.9554	-0.391
Mof_H 	H 	0.5213	0.0214	0.9882	0.307
Mof_H 	H 	0.5154	0.0207	0.9231	0.416
Mof_O 	O 	0.58	0.9634	0.5638	-0.558
Mof_H 	H 	0.5811	0.9857	0.5998	0.083
Mof_H 	H 	0.667	0.9799	0.5398	0.221
Mof_O 	O 	0.414	0.8789	0.7804	-0.469
Mof_H 	H 	0.374	0.8956	0.8158	0.214
Mof_H 	H 	0.4866	0.9102	0.768	0.423
Mof_H 	H 	0.5238	0.011	0.736	0.073
Mof_H 	H 	0.4054	0.0359	0.778	0.16
Mof_O 	O 	0.456	0.9695	0.8346	-0.404
Mof_H 	H 	0.466	0.9545	0.7959	0.305
Mof_H 	H 	0.5528	0.9606	0.8521	0.171
Mof_O 	O 	0.317	0.022	0.3692	-0.324
Mof_H 	H 	0.2969	0.0542	0.3975	0.188
Mof_H 	H 	0.3085	0.9824	0.3897	0.118
Mof_O 	O 	0.447	0.0029	0.9554	-0.372
Mof_H 	H 	0.4787	0.9786	0.9882	0.305
Mof_H 	H 	0.4846	0.9793	0.9231	0.418
Mof_O 	O 	0.42	0.0366	0.5638	-0.553
Mof_H 	H 	0.4189	0.0143	0.5998	0.085
Mof_H 	H 	0.333	0.0201	0.5398	0.228
Mof_O 	O 	0.586	0.1211	0.7804	-0.444
Mof_H 	H 	0.626	0.1044	0.8158	0.204
Mof_H 	H 	0.5134	0.0898	0.768	0.368
Mof_H 	H 	0.4762	0.989	0.736	0.28
Mof_H 	H 	0.5946	0.9641	0.778	0.136
Mof_O 	O 	0.544	0.0305	0.8346	-0.389
Mof_H 	H 	0.534	0.0455	0.7959	0.281
Mof_H 	H 	0.4472	0.0394	0.8521	0.168
Mof_O 	O 	0.5	0.9513	0.25	-1.293
Mof_O 	O 	0.5	0.0487	0.25	-1.066
Mof_O 	O 	0.5	0.0487	0.75	-1.066
Mof_O 	O 	0.5	0.9513	0.75	-1.293
_end
