data_functionalizedCrystal
_audit_creation_method	'EQeq! by Chris Wilmer'
_symmetry_space_group_name_H-M	'P1'
_symmetry_Int_Tables_number	1
_symmetry_cell_setting	triclinic
loop_
_symmetry_equiv_pos_as_xyz
  x,y,z
_cell_length_a	6.9433
_cell_length_b	22.1923
_cell_length_c	7.7302
_cell_angle_alpha	90
_cell_angle_beta	90
_cell_angle_gamma	90
loop_
_atom_site_label
_atom_site_type_symbol
_atom_site_fract_x
_atom_site_fract_y
_atom_site_fract_z
_atom_site_charge
Mof_Co	Co	0.54694	0.71253	0.24224	1.184
Mof_Co	Co	0.45306	0.28747	0.24224	1.184
Mof_Co	Co	0.04694	0.78747	0.75776	1.181
Mof_Co	Co	0.95306	0.21253	0.75776	1.181
Mof_H 	H 	0.6493	0.8856	0.3895	0.137
Mof_H 	H 	0.8433	0.8775	0.2816	0.143
Mof_H 	H 	0.5639	0.8746	0.1063	0.039
Mof_H 	H 	0.3441	0.8039	0.1434	0.132
Mof_H 	H 	0.3971	0.8148	0.3284	0.117
Mof_H 	H 	0.9619	0.6719	0.2736	0.011
Mof_H 	H 	0.151	0.5861	0.2974	0.081
Mof_H 	H 	0.6838	0.4914	0.1213	0.076
Mof_H 	H 	0.5155	0.5783	0.1289	0
Mof_H 	H 	0.3507	0.1144	0.3895	0.137
Mof_H 	H 	0.1567	0.1225	0.2816	0.143
Mof_H 	H 	0.4361	0.1254	0.1063	0.039
Mof_H 	H 	0.6559	0.1961	0.1434	0.132
Mof_H 	H 	0.6029	0.1852	0.3284	0.117
Mof_H 	H 	0.0381	0.3281	0.2736	0.011
Mof_H 	H 	0.849	0.4139	0.2974	0.081
Mof_H 	H 	0.3162	0.5086	0.1213	0.076
Mof_H 	H 	0.4845	0.4217	0.1289	0
Mof_H 	H 	0.1493	0.6144	0.6105	0.136
Mof_H 	H 	0.3433	0.6225	0.7184	0.141
Mof_H 	H 	0.0639	0.6254	0.8937	0.04
Mof_H 	H 	0.8441	0.6961	0.8566	0.133
Mof_H 	H 	0.8971	0.6852	0.6716	0.119
Mof_H 	H 	0.4619	0.8281	0.7264	0.012
Mof_H 	H 	0.651	0.9139	0.7026	0.079
Mof_H 	H 	0.1838	0.0086	0.8787	0.078
Mof_H 	H 	0.0155	0.9217	0.8711	-0.001
Mof_H 	H 	0.8507	0.3856	0.6105	0.136
Mof_H 	H 	0.6567	0.3775	0.7184	0.141
Mof_H 	H 	0.9361	0.3746	0.8937	0.04
Mof_H 	H 	0.1559	0.3039	0.8566	0.133
Mof_H 	H 	0.1029	0.3148	0.6716	0.119
Mof_H 	H 	0.5381	0.1719	0.7264	0.012
Mof_H 	H 	0.349	0.0861	0.7026	0.079
Mof_H 	H 	0.8162	0.9914	0.8787	0.078
Mof_H 	H 	0.9845	0.0783	0.8711	-0.001
Mof_C 	C 	0.79	0.8057	0.4463	0.448
Mof_C 	C 	0.7265	0.85625	0.3226	-0.364
Mof_C 	C 	0.611	0.83761	0.1666	-0.007
Mof_C 	C 	0.7354	0.80112	0.0407	0.302
Mof_C 	C 	0.0221	0.58357	0.257	-0.132
Mof_C 	C 	0.942	0.5275	0.2003	0.053
Mof_C 	C 	0.7458	0.5276	0.1561	-0.14
Mof_C 	C 	0.6467	0.5797	0.1635	0.091
Mof_C 	C 	0.905	0.63383	0.2507	0.067
Mof_C 	C 	0.21	0.1943	0.4463	0.448
Mof_C 	C 	0.2735	0.14375	0.3226	-0.364
Mof_C 	C 	0.389	0.16239	0.1666	-0.007
Mof_C 	C 	0.2646	0.19888	0.0407	0.302
Mof_C 	C 	0.9779	0.41643	0.257	-0.132
Mof_C 	C 	0.058	0.4725	0.2003	0.053
Mof_C 	C 	0.2542	0.4724	0.1561	-0.14
Mof_C 	C 	0.3533	0.4203	0.1635	0.091
Mof_C 	C 	0.095	0.36617	0.2507	0.067
Mof_C 	C 	0.29	0.6943	0.5537	0.446
Mof_C 	C 	0.2265	0.64375	0.6774	-0.361
Mof_C 	C 	0.111	0.66239	0.8334	-0.013
Mof_C 	C 	0.2354	0.69888	0.9593	0.305
Mof_C 	C 	0.5221	0.91643	0.743	-0.121
Mof_C 	C 	0.442	0.9725	0.7997	0.049
Mof_C 	C 	0.2458	0.9724	0.8439	-0.14
Mof_C 	C 	0.1467	0.9203	0.8365	0.09
Mof_C 	C 	0.405	0.86617	0.7493	0.059
Mof_C 	C 	0.71	0.3057	0.5537	0.446
Mof_C 	C 	0.7735	0.35625	0.6774	-0.361
Mof_C 	C 	0.889	0.33761	0.8334	-0.013
Mof_C 	C 	0.7646	0.30112	0.9593	0.305
Mof_C 	C 	0.4779	0.08357	0.743	-0.121
Mof_C 	C 	0.558	0.0275	0.7997	0.049
Mof_C 	C 	0.7542	0.0276	0.8439	-0.14
Mof_C 	C 	0.8533	0.0797	0.8365	0.09
Mof_C 	C 	0.595	0.13383	0.7493	0.059
Mof_N 	N 	0.4421	0.80152	0.2232	-0.326
Mof_N 	N 	0.713	0.6322	0.2135	-0.222
Mof_N 	N 	0.5579	0.19848	0.2232	-0.326
Mof_N 	N 	0.287	0.3678	0.2135	-0.222
Mof_N 	N 	0.9421	0.69848	0.7768	-0.322
Mof_N 	N 	0.213	0.8678	0.7865	-0.222
Mof_N 	N 	0.0579	0.30152	0.7768	-0.322
Mof_N 	N 	0.787	0.1322	0.7865	-0.222
Mof_O 	O 	0.7525	0.75168	0.4207	-0.444
Mof_O 	O 	0.8847	0.82577	0.5715	-0.453
Mof_O 	O 	0.7093	0.74496	0.0399	-0.414
Mof_O 	O 	0.8518	0.82886	0.9447	-0.371
Mof_O 	O 	0.2475	0.24832	0.4207	-0.444
Mof_O 	O 	0.1153	0.17423	0.5715	-0.453
Mof_O 	O 	0.2907	0.25504	0.0399	-0.414
Mof_O 	O 	0.1482	0.17114	0.9447	-0.371
Mof_O 	O 	0.2525	0.74832	0.5793	-0.446
Mof_O 	O 	0.3847	0.67423	0.4285	-0.457
Mof_O 	O 	0.2093	0.75504	0.9601	-0.417
Mof_O 	O 	0.3518	0.67114	0.0553	-0.376
Mof_O 	O 	0.7475	0.25168	0.5793	-0.446
Mof_O 	O 	0.6153	0.32577	0.4285	-0.457
Mof_O 	O 	0.7907	0.24496	0.9601	-0.417
Mof_O 	O 	0.6482	0.32886	0.0553	-0.376
_end
