# CIF file generated by openbabel 3.1.0, see https://openbabel.org
data_I
_chemical_name_common 'image0'
_cell_length_a 5.2697
_cell_length_b 12.14
_cell_length_c 13.9161
_cell_angle_alpha 115.439
_cell_angle_beta 98.392
_cell_angle_gamma 91.157
_space_group_name_H-M_alt 'P 1'
_space_group_name_Hall 'P 1'
loop_
    _symmetry_equiv_pos_as_xyz
    x,y,z
loop_
    _atom_site_label
    _atom_site_type_symbol
    _atom_site_fract_x
    _atom_site_fract_y
    _atom_site_fract_z
    _atom_site_occupancy
    Zn1      Zn       0.50970    0.39760    0.16730    1.000
    Zn2      Zn       0.04760    0.30350    0.95460    1.000
    Zn3      Zn       0.44130    0.11410    0.15350    1.000
    Zn4      Zn       0.22690    0.49180    0.38190    1.000
    P1       P        0.03190    0.53710    0.17740    1.000
    P2       P        0.69960    0.33700    0.36220    1.000
    P3       P        0.53650    0.16860    0.95970    1.000
    O1       O        0.15020    0.41510    0.11100    1.000
    O2       O        0.10460    0.63460    0.14270    1.000
    O3       O        0.74110    0.51270    0.15910    1.000
    O4       O        0.15910    0.58240    0.29550    1.000
    O5       O        0.52100    0.40780    0.31270    1.000
    O6       O        0.62130    0.20070    0.30060    1.000
    O7       O        0.66250    0.38010    0.47840    1.000
    O8       O        0.97640    0.36310    0.35280    1.000
    O9       O        0.53660    0.22070    0.08420    1.000
    O10      O        0.40930    0.03810    0.90780    1.000
    O11      O        0.81460    0.17010    0.94110    1.000
    O12      O        0.37980    0.24920    0.91920    1.000
    Zn5      Zn       0.49030    0.60240    0.83270    1.000
    Zn6      Zn       0.95240    0.69650    0.04540    1.000
    Zn7      Zn       0.55870    0.88590    0.84650    1.000
    Zn8      Zn       0.77310    0.50820    0.61810    1.000
    P4       P        0.96810    0.46290    0.82260    1.000
    P5       P        0.30040    0.66300    0.63780    1.000
    P6       P        0.46350    0.83140    0.04030    1.000
    O13      O        0.84980    0.58490    0.88900    1.000
    O14      O        0.89540    0.36540    0.85730    1.000
    O15      O        0.25890    0.48730    0.84090    1.000
    O16      O        0.84090    0.41760    0.70450    1.000
    O17      O        0.47900    0.59220    0.68730    1.000
    O18      O        0.37870    0.79930    0.69940    1.000
    O19      O        0.33750    0.61990    0.52160    1.000
    O20      O        0.02360    0.63690    0.64720    1.000
    O21      O        0.46340    0.77930    0.91580    1.000
    O22      O        0.59070    0.96190    0.09220    1.000
    O23      O        0.18540    0.82990    0.05890    1.000
    O24      O        0.62020    0.75080    0.08080    1.000
