# CIF file generated by openbabel 3.1.0, see https://openbabel.org
data_I
_chemical_name_common 'DEJCIF_clean'
_cell_length_a 7.3361
_cell_length_b 10.7496
_cell_length_c 14.028
_cell_angle_alpha 90
_cell_angle_beta 90.778
_cell_angle_gamma 90
_space_group_name_H-M_alt 'P 1'
_space_group_name_Hall 'P 1'
loop_
    _symmetry_equiv_pos_as_xyz
    x,y,z
loop_
    _atom_site_label
    _atom_site_type_symbol
    _atom_site_fract_x
    _atom_site_fract_y
    _atom_site_fract_z
    _atom_site_occupancy
    Cu1      Cu       0.91107    0.90790    0.88013    1.000
    Cu2      Cu       0.08893    0.40790    0.61987    1.000
    Cu3      Cu       0.08893    0.09210    0.11987    1.000
    Cu4      Cu       0.91107    0.59210    0.38013    1.000
    H1       H        0.36890    0.75300    0.81120    1.000
    H2       H        0.46560    0.45420    0.58130    1.000
    H3       H        0.12990    0.63420    0.75040    1.000
    H4       H        0.63110    0.25300    0.68880    1.000
    H5       H        0.53440    0.95420    0.91870    1.000
    H6       H        0.87010    0.13420    0.74960    1.000
    H7       H        0.63110    0.24700    0.18880    1.000
    H8       H        0.53440    0.54580    0.41870    1.000
    H9       H        0.87010    0.36580    0.24960    1.000
    H10      H        0.36890    0.74700    0.31120    1.000
    H11      H        0.46560    0.04580    0.08130    1.000
    H12      H        0.12990    0.86580    0.25040    1.000
    C1       C        0.72420    0.75380    0.76670    1.000
    C2       C        0.56790    0.67400    0.73100    1.000
    C3       C        0.59370    0.58650    0.65940    1.000
    C4       C        0.39180    0.69170    0.76400    1.000
    C5       C        0.44670    0.51590    0.62860    1.000
    C6       C        0.77460    0.55910    0.61360    1.000
    C7       C        0.25000    0.62000    0.72820    1.000
    C8       C        0.27580    0.25380    0.73330    1.000
    C9       C        0.43210    0.17400    0.76900    1.000
    C10      C        0.40630    0.08650    0.84060    1.000
    C11      C        0.60820    0.19170    0.73600    1.000
    C12      C        0.55330    0.01590    0.87140    1.000
    C13      C        0.22540    0.05910    0.88640    1.000
    C14      C        0.75000    0.12000    0.77180    1.000
    C15      C        0.27580    0.24620    0.23330    1.000
    C16      C        0.43210    0.32600    0.26900    1.000
    C17      C        0.40630    0.41350    0.34060    1.000
    C18      C        0.60820    0.30830    0.23600    1.000
    C19      C        0.55330    0.48410    0.37140    1.000
    C20      C        0.22540    0.44090    0.38640    1.000
    C21      C        0.75000    0.38000    0.27180    1.000
    C22      C        0.72420    0.74620    0.26670    1.000
    C23      C        0.56790    0.82600    0.23100    1.000
    C24      C        0.59370    0.91350    0.15940    1.000
    C25      C        0.39180    0.80830    0.26400    1.000
    C26      C        0.44670    0.98410    0.12860    1.000
    C27      C        0.77460    0.94090    0.11360    1.000
    C28      C        0.25000    0.88000    0.22820    1.000
    N1       N        0.27780    0.53110    0.66310    1.000
    N2       N        0.72220    0.03110    0.83690    1.000
    N3       N        0.72220    0.46890    0.33690    1.000
    N4       N        0.27780    0.96890    0.16310    1.000
    O1       O        0.73190    0.77040    0.85700    1.000
    O2       O        0.78860    0.57810    0.52762    1.000
    O3       O        0.89420    0.51200    0.66897    1.000
    O4       O        0.82880    0.79780    0.70820    1.000
    O5       O        0.26810    0.27040    0.64300    1.000
    O6       O        0.21140    0.07810    0.97238    1.000
    O7       O        0.10580    0.01200    0.83103    1.000
    O8       O        0.17120    0.29780    0.79180    1.000
    O9       O        0.26810    0.22960    0.14300    1.000
    O10      O        0.21140    0.42190    0.47238    1.000
    O11      O        0.10580    0.48800    0.33103    1.000
    O12      O        0.17120    0.20220    0.29180    1.000
    O13      O        0.73190    0.72960    0.35700    1.000
    O14      O        0.78860    0.92190    0.02762    1.000
    O15      O        0.89420    0.98800    0.16897    1.000
    O16      O        0.82880    0.70220    0.20820    1.000
