data_functionalizedCrystal
_audit_creation_method	'EQeq! by Chris Wilmer'
_symmetry_space_group_name_H-M	'P1'
_symmetry_Int_Tables_number	1
_symmetry_cell_setting	triclinic
loop_
_symmetry_equiv_pos_as_xyz
  x,y,z
_cell_length_a	16.291
_cell_length_b	24.684
_cell_length_c	13.435
_cell_angle_alpha	90
_cell_angle_beta	124.098
_cell_angle_gamma	90
loop_
_atom_site_label
_atom_site_type_symbol
_atom_site_fract_x
_atom_site_fract_y
_atom_site_fract_z
_atom_site_charge
Mof_Zn	Zn	0.82509	0.55238	0.72903	1.223
Mof_O 	O 	0.2361	0.5634	0.9436	-0.437
Mof_O 	O 	0.12	0.6223	0.9105	-0.339
Mof_O 	O 	0.1509	0.5298	0.0835	-0.468
Mof_O 	O 	0.2508	0.5129	0.2803	-0.451
Mof_O 	O 	0.469	0.6568	0.5361	-0.134
Mof_O 	O 	0.518	0.7164	0.4703	-0.131
Mof_O 	O 	0.9598	0.53897	0.8456	-0.746
Mof_H 	H 	0.9985	0.562	0.8453	0.316
Mof_N 	N 	0.4681	0.6778	0.455	-0.015
Mof_N 	N 	0.9597	0.571	0.0592	-0.265
Mof_N 	N 	0.7372	0.8844	0.2356	-0.276
Mof_C 	C 	0.2683	0.618	0.1042	-0.14
Mof_C 	C 	0.2815	0.5903	0.2035	0.005
Mof_C 	C 	0.349	0.6096	0.3183	-0.127
Mof_H 	H 	0.3598	0.5908	0.3846	0.106
Mof_C 	C 	0.4001	0.6567	0.3343	0.14
Mof_C 	C 	0.3885	0.6854	0.2393	-0.166
Mof_H 	H 	0.4245	0.7168	0.252	0.108
Mof_C 	C 	0.3213	0.6659	0.1241	0.079
Mof_H 	H 	0.3113	0.6852	0.0586	0.004
Mof_C 	C 	0.2005	0.5997	0.9766	0.406
Mof_C 	C 	0.2215	0.5404	0.1854	0.347
Mof_C 	C 	0.9793	0.6216	0.0459	0.211
Mof_H 	H 	0.018	0.627	0.0158	-0.09
Mof_C 	C 	0.946	0.6663	0.0736	-0.246
Mof_H 	H 	0.9616	0.701	0.062	0.138
Mof_C 	C 	0.8875	0.659	0.12	0.162
Mof_C 	C 	0.8673	0.6057	0.1333	-0.208
Mof_H 	H 	0.829	0.5987	0.1634	0.106
Mof_C 	C 	0.9031	0.5636	0.1028	0.121
Mof_H 	H 	0.8881	0.5284	0.1123	-0.029
Mof_C 	C 	0.8488	0.7033	0.1547	-0.096
Mof_H 	H 	0.809	0.6935	0.1812	0.069
Mof_C 	C 	0.8639	0.7552	0.1523	-0.093
Mof_H 	H 	0.9055	0.7653	0.1286	0.082
Mof_C 	C 	0.7946	0.893	0.1959	0.128
Mof_H 	H 	0.8071	0.9286	0.1858	-0.007
Mof_C 	C 	0.8366	0.8523	0.169	-0.199
Mof_H 	H 	0.8755	0.8608	0.1405	0.123
Mof_C 	C 	0.8212	0.7992	0.184	0.155
Mof_C 	C 	0.7627	0.7896	0.228	-0.188
Mof_H 	H 	0.7511	0.7544	0.2417	0.108
Mof_C 	C 	0.7223	0.8329	0.2509	0.12
Mof_H 	H 	0.6823	0.8257	0.2786	-0.021
Mof_Zn	Zn	0.32509	0.05238	0.72903	1.213
Mof_O 	O 	0.7361	0.0634	0.9436	-0.447
Mof_O 	O 	0.62	0.1223	0.9105	-0.329
Mof_O 	O 	0.6509	0.0298	0.0835	-0.479
Mof_O 	O 	0.7508	0.0129	0.2803	-0.474
Mof_O 	O 	0.969	0.1568	0.5361	-0.124
Mof_O 	O 	0.018	0.2164	0.4703	-0.173
Mof_O 	O 	0.4598	0.03897	0.8456	-0.782
Mof_H 	H 	0.4985	0.062	0.8453	0.303
Mof_N 	N 	0.9681	0.1778	0.455	0.009
Mof_N 	N 	0.4597	0.071	0.0592	-0.261
Mof_N 	N 	0.2372	0.3844	0.2356	-0.283
Mof_C 	C 	0.7683	0.118	0.1042	-0.135
Mof_C 	C 	0.7815	0.0903	0.2035	0.002
Mof_C 	C 	0.849	0.1096	0.3183	-0.124
Mof_H 	H 	0.8598	0.0908	0.3846	0.104
Mof_C 	C 	0.9001	0.1567	0.3343	0.144
Mof_C 	C 	0.8885	0.1854	0.2393	-0.162
Mof_H 	H 	0.9245	0.2168	0.252	0.119
Mof_C 	C 	0.8213	0.1659	0.1241	0.081
Mof_H 	H 	0.8113	0.1852	0.0586	0.008
Mof_C 	C 	0.7005	0.0997	0.9766	0.401
Mof_C 	C 	0.7215	0.0404	0.1854	0.35
Mof_C 	C 	0.4793	0.1216	0.0459	0.09
Mof_H 	H 	0.518	0.127	0.0158	-0.017
Mof_C 	C 	0.446	0.1663	0.0736	-0.182
Mof_H 	H 	0.4616	0.201	0.062	0.102
Mof_C 	C 	0.3875	0.159	0.12	0.122
Mof_C 	C 	0.3673	0.1057	0.1333	-0.19
Mof_H 	H 	0.329	0.0987	0.1634	0.093
Mof_C 	C 	0.4031	0.0636	0.1028	0.098
Mof_H 	H 	0.3881	0.0284	0.1123	-0.049
Mof_C 	C 	0.3488	0.2033	0.1547	-0.079
Mof_H 	H 	0.309	0.1935	0.1812	0.061
Mof_C 	C 	0.3639	0.2552	0.1523	-0.11
Mof_H 	H 	0.4055	0.2653	0.1286	0.08
Mof_C 	C 	0.2946	0.393	0.1959	0.128
Mof_H 	H 	0.3071	0.4286	0.1858	-0.025
Mof_C 	C 	0.3366	0.3523	0.169	-0.209
Mof_H 	H 	0.3755	0.3608	0.1405	0.116
Mof_C 	C 	0.3212	0.2992	0.184	0.158
Mof_C 	C 	0.2627	0.2896	0.228	-0.196
Mof_H 	H 	0.2511	0.2544	0.2417	0.108
Mof_C 	C 	0.2223	0.3329	0.2509	0.119
Mof_H 	H 	0.1823	0.3257	0.2786	-0.027
Mof_Zn	Zn	0.17491	0.55238	0.77097	1.221
Mof_O 	O 	0.7639	0.5634	0.5564	-0.434
Mof_O 	O 	0.88	0.6223	0.5895	-0.314
Mof_O 	O 	0.8491	0.5298	0.4165	-0.431
Mof_O 	O 	0.7492	0.5129	0.2197	-0.453
Mof_O 	O 	0.531	0.6568	0.9639	-0.095
Mof_O 	O 	0.482	0.7164	0.0297	-0.15
Mof_O 	O 	0.0402	0.53897	0.6544	-0.781
Mof_H 	H 	0.0015	0.562	0.6547	0.281
Mof_N 	N 	0.5319	0.6778	0.045	-0.036
Mof_N 	N 	0.0403	0.571	0.4408	-0.232
Mof_N 	N 	0.2628	0.8844	0.2644	-0.278
Mof_C 	C 	0.7317	0.618	0.3958	-0.072
Mof_C 	C 	0.7185	0.5903	0.2965	-0.017
Mof_C 	C 	0.651	0.6096	0.1817	-0.106
Mof_H 	H 	0.6402	0.5908	0.1154	0.087
Mof_C 	C 	0.5999	0.6567	0.1657	0.117
Mof_C 	C 	0.6115	0.6854	0.2607	-0.134
Mof_H 	H 	0.5755	0.7168	0.248	0.097
Mof_C 	C 	0.6787	0.6659	0.3759	0.041
Mof_H 	H 	0.6887	0.6852	0.4414	0.034
Mof_C 	C 	0.7995	0.5997	0.5234	0.342
Mof_C 	C 	0.7785	0.5404	0.3146	0.354
Mof_C 	C 	0.0207	0.6216	0.4541	-0.021
Mof_H 	H 	0.982	0.627	0.4842	0.067
Mof_C 	C 	0.054	0.6663	0.4264	-0.111
Mof_H 	H 	0.0384	0.701	0.438	0.074
Mof_C 	C 	0.1125	0.659	0.38	0.085
Mof_C 	C 	0.1327	0.6057	0.3667	-0.157
Mof_H 	H 	0.171	0.5987	0.3366	0.084
Mof_C 	C 	0.0969	0.5636	0.3972	0.08
Mof_H 	H 	0.1119	0.5284	0.3877	-0.023
Mof_C 	C 	0.1512	0.7033	0.3453	-0.055
Mof_H 	H 	0.191	0.6935	0.3188	0.053
Mof_C 	C 	0.1361	0.7552	0.3477	-0.125
Mof_H 	H 	0.0945	0.7653	0.3714	0.084
Mof_C 	C 	0.2054	0.893	0.3041	0.129
Mof_H 	H 	0.1929	0.9286	0.3142	-0.012
Mof_C 	C 	0.1634	0.8523	0.331	-0.209
Mof_H 	H 	0.1245	0.8608	0.3595	0.119
Mof_C 	C 	0.1788	0.7992	0.316	0.163
Mof_C 	C 	0.2373	0.7896	0.272	-0.198
Mof_H 	H 	0.2489	0.7544	0.2583	0.108
Mof_C 	C 	0.2777	0.8329	0.2491	0.121
Mof_H 	H 	0.3177	0.8257	0.2214	-0.025
Mof_Zn	Zn	0.67491	0.05238	0.77097	1.214
Mof_O 	O 	0.2639	0.0634	0.5564	-0.458
Mof_O 	O 	0.38	0.1223	0.5895	-0.329
Mof_O 	O 	0.3491	0.0298	0.4165	-0.464
Mof_O 	O 	0.2492	0.0129	0.2197	-0.488
Mof_O 	O 	0.031	0.1568	0.9639	-0.11
Mof_O 	O 	0.982	0.2164	0.0297	-0.105
Mof_O 	O 	0.5402	0.03897	0.6544	-0.795
Mof_H 	H 	0.5015	0.062	0.6547	0.301
Mof_N 	N 	0.0319	0.1778	0.045	-0.061
Mof_N 	N 	0.5403	0.071	0.4408	-0.254
Mof_N 	N 	0.7628	0.3844	0.2644	-0.28
Mof_C 	C 	0.2317	0.118	0.3958	-0.075
Mof_C 	C 	0.2185	0.0903	0.2965	-0.03
Mof_C 	C 	0.151	0.1096	0.1817	-0.102
Mof_H 	H 	0.1402	0.0908	0.1154	0.076
Mof_C 	C 	0.0999	0.1567	0.1657	0.104
Mof_C 	C 	0.1115	0.1854	0.2607	-0.134
Mof_H 	H 	0.0755	0.2168	0.248	0.083
Mof_C 	C 	0.1787	0.1659	0.3759	0.033
Mof_H 	H 	0.1887	0.1852	0.4414	0.032
Mof_C 	C 	0.2995	0.0997	0.5234	0.345
Mof_C 	C 	0.2785	0.0404	0.3146	0.36
Mof_C 	C 	0.5207	0.1216	0.4541	0.097
Mof_H 	H 	0.482	0.127	0.4842	-0.005
Mof_C 	C 	0.554	0.1663	0.4264	-0.178
Mof_H 	H 	0.5384	0.201	0.438	0.111
Mof_C 	C 	0.6125	0.159	0.38	0.128
Mof_C 	C 	0.6327	0.1057	0.3667	-0.186
Mof_H 	H 	0.671	0.0987	0.3366	0.096
Mof_C 	C 	0.5969	0.0636	0.3972	0.105
Mof_H 	H 	0.6119	0.0284	0.3877	-0.044
Mof_C 	C 	0.6512	0.2033	0.3453	-0.074
Mof_H 	H 	0.691	0.1935	0.3188	0.062
Mof_C 	C 	0.6361	0.2552	0.3477	-0.108
Mof_H 	H 	0.5945	0.2653	0.3714	0.085
Mof_C 	C 	0.7054	0.393	0.3041	0.132
Mof_H 	H 	0.6929	0.4286	0.3142	-0.021
Mof_C 	C 	0.6634	0.3523	0.331	-0.206
Mof_H 	H 	0.6245	0.3608	0.3595	0.122
Mof_C 	C 	0.6788	0.2992	0.316	0.163
Mof_C 	C 	0.7373	0.2896	0.272	-0.193
Mof_H 	H 	0.7489	0.2544	0.2583	0.109
Mof_C 	C 	0.7777	0.3329	0.2491	0.123
Mof_H 	H 	0.8177	0.3257	0.2214	-0.021
Mof_Zn	Zn	0.17491	0.44762	0.27097	1.219
Mof_O 	O 	0.7639	0.4366	0.0564	-0.437
Mof_O 	O 	0.88	0.3777	0.0895	-0.315
Mof_O 	O 	0.8491	0.4702	0.9165	-0.409
Mof_O 	O 	0.7492	0.4871	0.7197	-0.446
Mof_O 	O 	0.531	0.3432	0.4639	-0.134
Mof_O 	O 	0.482	0.2836	0.5297	-0.13
Mof_O 	O 	0.0402	0.46103	0.1544	-0.789
Mof_H 	H 	0.0015	0.438	0.1547	0.277
Mof_N 	N 	0.5319	0.3222	0.545	-0.011
Mof_N 	N 	0.0403	0.429	0.9408	-0.224
Mof_N 	N 	0.2628	0.1156	0.7644	-0.284
Mof_C 	C 	0.7317	0.382	0.8958	-0.015
Mof_C 	C 	0.7185	0.4097	0.7965	-0.03
Mof_C 	C 	0.651	0.3904	0.6817	-0.092
Mof_H 	H 	0.6402	0.4092	0.6154	0.095
Mof_C 	C 	0.5999	0.3433	0.6657	0.113
Mof_C 	C 	0.6115	0.3146	0.7607	-0.114
Mof_H 	H 	0.5755	0.2832	0.748	0.094
Mof_C 	C 	0.6787	0.3341	0.8759	0.013
Mof_H 	H 	0.6887	0.3148	0.9414	0.058
Mof_C 	C 	0.7995	0.4003	0.0234	0.289
Mof_C 	C 	0.7785	0.4596	0.8146	0.358
Mof_C 	C 	0.0207	0.3784	0.9541	-0.006
Mof_H 	H 	0.982	0.373	0.9842	0.074
Mof_C 	C 	0.054	0.3337	0.9264	-0.112
Mof_H 	H 	0.0384	0.299	0.938	0.086
Mof_C 	C 	0.1125	0.341	0.88	0.094
Mof_C 	C 	0.1327	0.3943	0.8667	-0.156
Mof_H 	H 	0.171	0.4013	0.8366	0.088
Mof_C 	C 	0.0969	0.4364	0.8972	0.089
Mof_H 	H 	0.1119	0.4716	0.8877	-0.019
Mof_C 	C 	0.1512	0.2967	0.8453	-0.05
Mof_H 	H 	0.191	0.3065	0.8188	0.057
Mof_C 	C 	0.1361	0.2448	0.8477	-0.121
Mof_H 	H 	0.0945	0.2347	0.8714	0.088
Mof_C 	C 	0.2054	0.107	0.8041	0.141
Mof_H 	H 	0.1929	0.0714	0.8142	-0.033
Mof_C 	C 	0.1634	0.1477	0.831	-0.213
Mof_H 	H 	0.1245	0.1392	0.8595	0.123
Mof_C 	C 	0.1788	0.2008	0.816	0.174
Mof_C 	C 	0.2373	0.2104	0.772	-0.196
Mof_H 	H 	0.2489	0.2456	0.7583	0.113
Mof_C 	C 	0.2777	0.1671	0.7491	0.132
Mof_H 	H 	0.3177	0.1743	0.7214	-0.021
Mof_Zn	Zn	0.67491	0.94762	0.27097	1.23
Mof_O 	O 	0.2639	0.9366	0.0564	-0.426
Mof_O 	O 	0.38	0.8777	0.0895	-0.326
Mof_O 	O 	0.3491	0.9702	0.9165	-0.394
Mof_O 	O 	0.2492	0.9871	0.7197	-0.422
Mof_O 	O 	0.031	0.8432	0.4639	-0.144
Mof_O 	O 	0.982	0.7836	0.5297	-0.087
Mof_O 	O 	0.5402	0.96103	0.1544	-0.75
Mof_H 	H 	0.5015	0.938	0.1547	0.29
Mof_N 	N 	0.0319	0.8222	0.545	-0.034
Mof_N 	N 	0.5403	0.929	0.9408	-0.226
Mof_N 	N 	0.7628	0.6156	0.7644	-0.277
Mof_C 	C 	0.2317	0.882	0.8958	-0.012
Mof_C 	C 	0.2185	0.9097	0.7965	-0.029
Mof_C 	C 	0.151	0.8904	0.6817	-0.092
Mof_H 	H 	0.1402	0.9092	0.6154	0.096
Mof_C 	C 	0.0999	0.8433	0.6657	0.108
Mof_C 	C 	0.1115	0.8146	0.7607	-0.114
Mof_H 	H 	0.0755	0.7832	0.748	0.082
Mof_C 	C 	0.1787	0.8341	0.8759	0.008
Mof_H 	H 	0.1887	0.8148	0.9414	0.058
Mof_C 	C 	0.2995	0.9003	0.0234	0.286
Mof_C 	C 	0.2785	0.9596	0.8146	0.356
Mof_C 	C 	0.5207	0.8784	0.9541	0.099
Mof_H 	H 	0.482	0.873	0.9842	0.011
Mof_C 	C 	0.554	0.8337	0.9264	-0.168
Mof_H 	H 	0.5384	0.799	0.938	0.118
Mof_C 	C 	0.6125	0.841	0.88	0.129
Mof_C 	C 	0.6327	0.8943	0.8667	-0.17
Mof_H 	H 	0.671	0.9013	0.8366	0.1
Mof_C 	C 	0.5969	0.9364	0.8972	0.108
Mof_H 	H 	0.6119	0.9716	0.8877	0.001
Mof_C 	C 	0.6512	0.7967	0.8453	-0.065
Mof_H 	H 	0.691	0.8065	0.8188	0.064
Mof_C 	C 	0.6361	0.7448	0.8477	-0.107
Mof_H 	H 	0.5945	0.7347	0.8714	0.09
Mof_C 	C 	0.7054	0.607	0.8041	0.141
Mof_H 	H 	0.6929	0.5714	0.8142	-0.016
Mof_C 	C 	0.6634	0.6477	0.831	-0.204
Mof_H 	H 	0.6245	0.6392	0.8595	0.128
Mof_C 	C 	0.6788	0.7008	0.816	0.171
Mof_C 	C 	0.7373	0.7104	0.772	-0.19
Mof_H 	H 	0.7489	0.7456	0.7583	0.113
Mof_C 	C 	0.7777	0.6671	0.7491	0.132
Mof_H 	H 	0.8177	0.6743	0.7214	-0.017
Mof_Zn	Zn	0.82509	0.44762	0.22903	1.222
Mof_O 	O 	0.2361	0.4366	0.4436	-0.439
Mof_O 	O 	0.12	0.3777	0.4105	-0.342
Mof_O 	O 	0.1509	0.4702	0.5835	-0.449
Mof_O 	O 	0.2508	0.4871	0.7803	-0.444
Mof_O 	O 	0.469	0.3432	0.0361	-0.173
Mof_O 	O 	0.518	0.2836	0.9703	-0.11
Mof_O 	O 	0.9598	0.46103	0.3456	-0.758
Mof_H 	H 	0.9985	0.438	0.3453	0.314
Mof_N 	N 	0.4681	0.3222	0.955	0.011
Mof_N 	N 	0.9597	0.429	0.5592	-0.258
Mof_N 	N 	0.7372	0.1156	0.7356	-0.282
Mof_C 	C 	0.2683	0.382	0.6042	-0.079
Mof_C 	C 	0.2815	0.4097	0.7035	-0.01
Mof_C 	C 	0.349	0.3904	0.8183	-0.111
Mof_H 	H 	0.3598	0.4092	0.8846	0.113
Mof_C 	C 	0.4001	0.3433	0.8343	0.135
Mof_C 	C 	0.3885	0.3146	0.7393	-0.144
Mof_H 	H 	0.4245	0.2832	0.752	0.104
Mof_C 	C 	0.3213	0.3341	0.6241	0.05
Mof_H 	H 	0.3113	0.3148	0.5586	0.03
Mof_C 	C 	0.2005	0.4003	0.4766	0.349
Mof_C 	C 	0.2215	0.4596	0.6854	0.353
Mof_C 	C 	0.9793	0.3784	0.5459	0.211
Mof_H 	H 	0.018	0.373	0.5158	-0.075
Mof_C 	C 	0.946	0.3337	0.5736	-0.239
Mof_H 	H 	0.9616	0.299	0.562	0.146
Mof_C 	C 	0.8875	0.341	0.62	0.166
Mof_C 	C 	0.8673	0.3943	0.6333	-0.204
Mof_H 	H 	0.829	0.4013	0.6634	0.109
Mof_C 	C 	0.9031	0.4364	0.6028	0.126
Mof_H 	H 	0.8881	0.4716	0.6123	-0.025
Mof_C 	C 	0.8488	0.2967	0.6547	-0.089
Mof_H 	H 	0.809	0.3065	0.6812	0.072
Mof_C 	C 	0.8639	0.2448	0.6523	-0.092
Mof_H 	H 	0.9055	0.2347	0.6286	0.086
Mof_C 	C 	0.7946	0.107	0.6959	0.14
Mof_H 	H 	0.8071	0.0714	0.6858	-0.029
Mof_C 	C 	0.8366	0.1477	0.669	-0.204
Mof_H 	H 	0.8755	0.1392	0.6405	0.125
Mof_C 	C 	0.8212	0.2008	0.684	0.166
Mof_C 	C 	0.7627	0.2104	0.728	-0.188
Mof_H 	H 	0.7511	0.2456	0.7417	0.114
Mof_C 	C 	0.7223	0.1671	0.7509	0.13
Mof_H 	H 	0.6823	0.1743	0.7786	-0.018
Mof_Zn	Zn	0.32509	0.94762	0.22903	1.23
Mof_O 	O 	0.7361	0.9366	0.4436	-0.415
Mof_O 	O 	0.62	0.8777	0.4105	-0.327
Mof_O 	O 	0.6509	0.9702	0.5835	-0.415
Mof_O 	O 	0.7508	0.9871	0.7803	-0.409
Mof_O 	O 	0.969	0.8432	0.0361	-0.153
Mof_O 	O 	0.018	0.7836	0.9703	-0.149
Mof_O 	O 	0.4598	0.96103	0.3456	-0.742
Mof_H 	H 	0.4985	0.938	0.3453	0.293
Mof_N 	N 	0.9681	0.8222	0.955	0.03
Mof_N 	N 	0.4597	0.929	0.5592	-0.235
Mof_N 	N 	0.2372	0.6156	0.7356	-0.279
Mof_C 	C 	0.7683	0.882	0.6042	-0.076
Mof_C 	C 	0.7815	0.9097	0.7035	0.003
Mof_C 	C 	0.849	0.8904	0.8183	-0.115
Mof_H 	H 	0.8598	0.9092	0.8846	0.123
Mof_C 	C 	0.9001	0.8433	0.8343	0.147
Mof_C 	C 	0.8885	0.8146	0.7393	-0.144
Mof_H 	H 	0.9245	0.7832	0.752	0.117
Mof_C 	C 	0.8213	0.8341	0.6241	0.057
Mof_H 	H 	0.8113	0.8148	0.5586	0.032
Mof_C 	C 	0.7005	0.9003	0.4766	0.345
Mof_C 	C 	0.7215	0.9596	0.6854	0.347
Mof_C 	C 	0.4793	0.8784	0.5459	0.093
Mof_H 	H 	0.518	0.873	0.5158	-0.003
Mof_C 	C 	0.446	0.8337	0.5736	-0.173
Mof_H 	H 	0.4616	0.799	0.562	0.109
Mof_C 	C 	0.3875	0.841	0.62	0.123
Mof_C 	C 	0.3673	0.8943	0.6333	-0.174
Mof_H 	H 	0.329	0.9013	0.6634	0.097
Mof_C 	C 	0.4031	0.9364	0.6028	0.102
Mof_H 	H 	0.3881	0.9716	0.6123	-0.004
Mof_C 	C 	0.3488	0.7967	0.6547	-0.07
Mof_H 	H 	0.309	0.8065	0.6812	0.063
Mof_C 	C 	0.3639	0.7448	0.6523	-0.108
Mof_H 	H 	0.4055	0.7347	0.6286	0.085
Mof_C 	C 	0.2946	0.607	0.6959	0.138
Mof_H 	H 	0.3071	0.5714	0.6858	-0.019
Mof_C 	C 	0.3366	0.6477	0.669	-0.206
Mof_H 	H 	0.3755	0.6392	0.6405	0.123
Mof_C 	C 	0.3212	0.7008	0.684	0.167
Mof_C 	C 	0.2627	0.7104	0.728	-0.191
Mof_H 	H 	0.2511	0.7456	0.7417	0.113
Mof_C 	C 	0.2223	0.6671	0.7509	0.129
Mof_H 	H 	0.1823	0.6743	0.7786	-0.022
Mof_Zn	Zn	-0	0.5	-0	1.199
Mof_Zn	Zn	0.5	0	-0	1.196
Mof_Zn	Zn	2.41277e-33	0.5	0.5	1.213
Mof_Zn	Zn	0.5	-5.64257e-33	0.5	1.209
_end
