data_functionalizedCrystal
_audit_creation_method	'EQeq! by Chris Wilmer'
_symmetry_space_group_name_H-M	'P1'
_symmetry_Int_Tables_number	1
_symmetry_cell_setting	triclinic
loop_
_symmetry_equiv_pos_as_xyz
  x,y,z
_cell_length_a	13.5054
_cell_length_b	19.815
_cell_length_c	11.6353
_cell_angle_alpha	90
_cell_angle_beta	96.5779
_cell_angle_gamma	90
loop_
_atom_site_label
_atom_site_type_symbol
_atom_site_fract_x
_atom_site_fract_y
_atom_site_fract_z
_atom_site_charge
Mof_Co	Co	0.42731	0.21497	0.31493	1.126
Mof_O 	O 	0.9176	0.1368	0.333	-0.43
Mof_H 	H 	0.8833	0.1256	0.3836	0.244
Mof_O 	O 	0.9374	0.2066	0.4682	-0.431
Mof_H 	H 	0.8957	0.1796	0.4857	0.229
Mof_O 	O 	0.9225	0.2291	0.1624	-0.386
Mof_H 	H 	0.92	0.2624	0.1205	0.245
Mof_O 	O 	0.9307	0.3148	0.3033	-0.376
Mof_H 	H 	0.9697	0.3281	0.2592	0.241
Mof_O 	O 	0.0219	0.0085	0.1538	-0.421
Mof_H 	H 	0.0829	0.0068	0.1578	0.232
Mof_O 	O 	0.0145	0.9191	0.0558	-0.413
Mof_H 	H 	0.0756	0.9194	0.0615	0.258
Mof_N 	N 	0.45955	0.2114	0.4979	-0.192
Mof_N 	N 	0.42569	0.24501	0.5666	-0.039
Mof_N 	N 	0.39075	0.27853	0.634	-0.195
Mof_N 	N 	0.43682	0.10801	0.3002	-0.196
Mof_N 	N 	0.47547	0.07325	0.2364	-0.038
Mof_N 	N 	0.51464	0.03659	0.1771	-0.196
Mof_N 	N 	0.51624	0.0999	0.9445	-0.186
Mof_N 	N 	0.46578	0.13732	0.8845	-0.032
Mof_N 	N 	0.41738	0.17572	0.8267	-0.178
Mof_N 	N 	0.5841	0.22635	0.298	-0.261
Mof_N 	N 	0.27045	0.20847	0.33134	-0.24
Mof_N 	N 	0.6592	0.98956	0.0195	-0.228
Mof_C 	C 	0.6445	0.26195	0.3762	0.112
Mof_C 	C 	0.6264	0.20013	0.2102	0.189
Mof_C 	C 	0.7445	0.27113	0.3688	-0.216
Mof_C 	C 	0.726	0.20666	0.1985	-0.343
Mof_C 	C 	0.7883	0.2419	0.2783	0.161
Mof_C 	C 	0.899	0.24746	0.272	0.142
Mof_C 	C 	0.2139	0.16004	0.2804	0.09
Mof_C 	C 	0.2236	0.25229	0.3943	0.071
Mof_C 	C 	0.1133	0.1545	0.2855	-0.14
Mof_C 	C 	0.1235	0.2488	0.4059	-0.101
Mof_C 	C 	0.0653	0.19969	0.3475	0.049
Mof_C 	C 	0.9542	0.1962	0.3556	0.301
Mof_C 	C 	0.7074	0.93636	0.9841	0.094
Mof_C 	C 	0.7163	0.03956	0.0651	0.043
Mof_C 	C 	0.819	0.0381	0.0792	-0.171
Mof_C 	C 	0.81	0.93132	0.9931	-0.037
Mof_C 	C 	0.8684	0.98363	0.0404	0.022
Mof_C 	C 	0.9813	0.98152	0.0507	0.266
Mof_H 	H 	0.5808	0.1759	0.155	-0.046
Mof_H 	H 	0.78	0.2943	0.424	0.132
Mof_H 	H 	0.85	0.8868	0.957	0.069
Mof_H 	H 	0.669	0.9043	0.954	0.002
Mof_H 	H 	0.753	0.191	0.147	0.196
Mof_H 	H 	0.609	0.2811	0.447	-0.005
Mof_H 	H 	0.857	0.072	0.113	0.117
Mof_H 	H 	0.246	0.1254	0.243	-0.016
Mof_H 	H 	0.682	0.0719	0.101	-0.005
Mof_H 	H 	0.265	0.295	0.426	0.011
Mof_H 	H 	0.085	0.117	0.257	0.118
Mof_H 	H 	0.08	0.2822	0.439	0.102
Mof_Co	Co	0.57269	0.71497	0.18507	1.125
Mof_O 	O 	0.0824	0.6368	0.167	-0.43
Mof_H 	H 	0.1167	0.6256	0.1164	0.243
Mof_O 	O 	0.0626	0.7066	0.0318	-0.441
Mof_H 	H 	0.1043	0.6796	0.0143	0.225
Mof_O 	O 	0.0775	0.7291	0.3376	-0.381
Mof_H 	H 	0.08	0.7624	0.3795	0.259
Mof_O 	O 	0.0693	0.8148	0.1967	-0.375
Mof_H 	H 	0.0303	0.8281	0.2408	0.251
Mof_O 	O 	0.9781	0.5085	0.3462	-0.398
Mof_H 	H 	0.9171	0.5068	0.3422	0.236
Mof_O 	O 	0.9855	0.4191	0.4442	-0.409
Mof_H 	H 	0.9244	0.4194	0.4385	0.254
Mof_N 	N 	0.54045	0.7114	0.0021	-0.211
Mof_N 	N 	0.57431	0.74501	0.9334	-0.016
Mof_N 	N 	0.60925	0.77853	0.866	-0.19
Mof_N 	N 	0.56318	0.60801	0.1998	-0.195
Mof_N 	N 	0.52453	0.57325	0.2636	-0.035
Mof_N 	N 	0.48536	0.53659	0.3229	-0.185
Mof_N 	N 	0.48376	0.5999	0.5555	-0.195
Mof_N 	N 	0.53422	0.63732	0.6155	-0.032
Mof_N 	N 	0.58262	0.67572	0.6733	-0.176
Mof_N 	N 	0.4159	0.72635	0.202	-0.261
Mof_N 	N 	0.72955	0.70847	0.16866	-0.238
Mof_N 	N 	0.3408	0.48956	0.4805	-0.236
Mof_C 	C 	0.3555	0.76195	0.1238	0.113
Mof_C 	C 	0.3736	0.70013	0.2898	0.195
Mof_C 	C 	0.2555	0.77113	0.1312	-0.215
Mof_C 	C 	0.274	0.70666	0.3015	-0.345
Mof_C 	C 	0.2117	0.7419	0.2217	0.165
Mof_C 	C 	0.101	0.74746	0.228	0.141
Mof_C 	C 	0.7861	0.66004	0.2196	0.086
Mof_C 	C 	0.7764	0.75229	0.1057	0.065
Mof_C 	C 	0.8867	0.6545	0.2145	-0.13
Mof_C 	C 	0.8765	0.7488	0.0941	-0.097
Mof_C 	C 	0.9347	0.69969	0.1525	0.034
Mof_C 	C 	0.0458	0.6962	0.1444	0.312
Mof_C 	C 	0.2926	0.43636	0.5159	0.054
Mof_C 	C 	0.2837	0.53956	0.4349	0.087
Mof_C 	C 	0.181	0.5381	0.4208	-0.139
Mof_C 	C 	0.19	0.43132	0.5069	-0.065
Mof_C 	C 	0.1316	0.48363	0.4596	0.022
Mof_C 	C 	0.0187	0.48152	0.4493	0.246
Mof_H 	H 	0.4192	0.6759	0.345	-0.04
Mof_H 	H 	0.22	0.7943	0.076	0.127
Mof_H 	H 	0.15	0.3868	0.543	0.064
Mof_H 	H 	0.331	0.4043	0.546	0.005
Mof_H 	H 	0.247	0.691	0.353	0.205
Mof_H 	H 	0.391	0.7811	0.053	-0.013
Mof_H 	H 	0.143	0.572	0.387	0.116
Mof_H 	H 	0.754	0.6254	0.257	-0.012
Mof_H 	H 	0.318	0.5719	0.399	-0.011
Mof_H 	H 	0.735	0.795	0.074	0.004
Mof_H 	H 	0.915	0.617	0.243	0.115
Mof_H 	H 	0.92	0.7822	0.061	0.091
Mof_Co	Co	0.57269	0.78503	0.68507	1.128
Mof_O 	O 	0.0824	0.8632	0.667	-0.425
Mof_H 	H 	0.1167	0.8744	0.6164	0.25
Mof_O 	O 	0.0626	0.7934	0.5318	-0.432
Mof_H 	H 	0.1043	0.8204	0.5143	0.233
Mof_O 	O 	0.0775	0.7709	0.8376	-0.378
Mof_H 	H 	0.08	0.7376	0.8795	0.268
Mof_O 	O 	0.0693	0.6852	0.6967	-0.374
Mof_H 	H 	0.0303	0.6719	0.7408	0.251
Mof_O 	O 	0.9781	0.9915	0.8462	-0.355
Mof_H 	H 	0.9171	0.9932	0.8422	0.237
Mof_O 	O 	0.9855	0.0809	0.9442	-0.381
Mof_H 	H 	0.9244	0.0806	0.9385	0.248
Mof_N 	N 	0.54045	0.7886	0.5021	-0.187
Mof_N 	N 	0.57431	0.75499	0.4334	-0.037
Mof_N 	N 	0.60925	0.72147	0.366	-0.194
Mof_N 	N 	0.56318	0.89199	0.6998	-0.186
Mof_N 	N 	0.52453	0.92675	0.7636	-0.029
Mof_N 	N 	0.48536	0.96341	0.8229	-0.163
Mof_N 	N 	0.48376	0.9001	0.0555	-0.197
Mof_N 	N 	0.53422	0.86268	0.1155	-0.034
Mof_N 	N 	0.58262	0.82428	0.1733	-0.179
Mof_N 	N 	0.4159	0.77365	0.702	-0.26
Mof_N 	N 	0.72955	0.79153	0.66866	-0.236
Mof_N 	N 	0.3408	0.01044	0.9805	-0.233
Mof_C 	C 	0.3555	0.73805	0.6238	0.118
Mof_C 	C 	0.3736	0.79987	0.7898	0.201
Mof_C 	C 	0.2555	0.72887	0.6312	-0.218
Mof_C 	C 	0.274	0.79334	0.8015	-0.347
Mof_C 	C 	0.2117	0.7581	0.7217	0.171
Mof_C 	C 	0.101	0.75254	0.728	0.142
Mof_C 	C 	0.7861	0.83996	0.7196	0.094
Mof_C 	C 	0.7764	0.74771	0.6057	0.073
Mof_C 	C 	0.8867	0.8455	0.7145	-0.13
Mof_C 	C 	0.8765	0.7512	0.5941	-0.095
Mof_C 	C 	0.9347	0.80031	0.6525	0.043
Mof_C 	C 	0.0458	0.8038	0.6444	0.308
Mof_C 	C 	0.2926	0.06364	0.0159	0.014
Mof_C 	C 	0.2837	0.96044	0.9349	0.131
Mof_C 	C 	0.181	0.9619	0.9208	-0.114
Mof_C 	C 	0.19	0.06868	0.0069	-0.098
Mof_C 	C 	0.1316	0.01637	0.9596	0.036
Mof_C 	C 	0.0187	0.01848	0.9493	0.192
Mof_H 	H 	0.4192	0.8241	0.845	-0.034
Mof_H 	H 	0.22	0.7057	0.576	0.135
Mof_H 	H 	0.15	0.1132	0.043	0.059
Mof_H 	H 	0.331	0.0957	0.046	0.01
Mof_H 	H 	0.247	0.809	0.853	0.214
Mof_H 	H 	0.391	0.7189	0.553	-0.005
Mof_H 	H 	0.143	0.928	0.887	0.117
Mof_H 	H 	0.754	0.8746	0.757	-0.009
Mof_H 	H 	0.318	0.9281	0.899	-0.014
Mof_H 	H 	0.735	0.705	0.574	0.012
Mof_H 	H 	0.915	0.883	0.743	0.121
Mof_H 	H 	0.92	0.7178	0.561	0.099
Mof_Co	Co	0.42731	0.28503	0.81493	1.128
Mof_O 	O 	0.9176	0.3632	0.833	-0.427
Mof_H 	H 	0.8833	0.3744	0.8836	0.251
Mof_O 	O 	0.9374	0.2934	0.9682	-0.422
Mof_H 	H 	0.8957	0.3204	0.9857	0.237
Mof_O 	O 	0.9225	0.2709	0.6624	-0.383
Mof_H 	H 	0.92	0.2376	0.6205	0.256
Mof_O 	O 	0.9307	0.1852	0.8033	-0.374
Mof_H 	H 	0.9697	0.1719	0.7592	0.243
Mof_O 	O 	0.0219	0.4915	0.6538	-0.38
Mof_H 	H 	0.0829	0.4932	0.6578	0.234
Mof_O 	O 	0.0145	0.5809	0.5558	-0.393
Mof_H 	H 	0.0756	0.5806	0.5615	0.251
Mof_N 	N 	0.45955	0.2886	0.9979	-0.167
Mof_N 	N 	0.42569	0.25499	0.0666	-0.061
Mof_N 	N 	0.39075	0.22147	0.134	-0.198
Mof_N 	N 	0.43682	0.39199	0.8002	-0.187
Mof_N 	N 	0.47547	0.42675	0.7364	-0.032
Mof_N 	N 	0.51464	0.46341	0.6771	-0.181
Mof_N 	N 	0.51624	0.4001	0.4445	-0.197
Mof_N 	N 	0.46578	0.36268	0.3845	-0.035
Mof_N 	N 	0.41738	0.32428	0.3267	-0.182
Mof_N 	N 	0.5841	0.27365	0.798	-0.261
Mof_N 	N 	0.27045	0.29153	0.83134	-0.237
Mof_N 	N 	0.6592	0.51044	0.5195	-0.237
Mof_C 	C 	0.6445	0.23805	0.8762	0.119
Mof_C 	C 	0.6264	0.29987	0.7102	0.197
Mof_C 	C 	0.7445	0.22887	0.8688	-0.22
Mof_C 	C 	0.726	0.29334	0.6985	-0.348
Mof_C 	C 	0.7883	0.2581	0.7783	0.168
Mof_C 	C 	0.899	0.25254	0.772	0.141
Mof_C 	C 	0.2139	0.33996	0.7804	0.096
Mof_C 	C 	0.2236	0.24771	0.8943	0.077
Mof_C 	C 	0.1133	0.3455	0.7855	-0.137
Mof_C 	C 	0.1235	0.2512	0.9059	-0.096
Mof_C 	C 	0.0653	0.30031	0.8475	0.052
Mof_C 	C 	0.9542	0.3038	0.8556	0.302
Mof_C 	C 	0.7074	0.56364	0.4841	0.057
Mof_C 	C 	0.7163	0.46044	0.5651	0.091
Mof_C 	C 	0.819	0.4619	0.5792	-0.144
Mof_C 	C 	0.81	0.56868	0.4931	-0.07
Mof_C 	C 	0.8684	0.51637	0.5404	0.032
Mof_C 	C 	0.9813	0.51848	0.5507	0.218
Mof_H 	H 	0.5808	0.3241	0.655	-0.041
Mof_H 	H 	0.78	0.2057	0.924	0.142
Mof_H 	H 	0.85	0.6132	0.457	0.064
Mof_H 	H 	0.669	0.5957	0.454	0.004
Mof_H 	H 	0.753	0.309	0.647	0.206
Mof_H 	H 	0.609	0.2189	0.947	0.003
Mof_H 	H 	0.857	0.428	0.613	0.118
Mof_H 	H 	0.246	0.3746	0.743	-0.012
Mof_H 	H 	0.682	0.4281	0.601	-0.01
Mof_H 	H 	0.265	0.205	0.926	0.02
Mof_H 	H 	0.085	0.383	0.757	0.123
Mof_H 	H 	0.08	0.2178	0.939	0.108
Mof_Co	Co	0.5	0	-0	1.094
Mof_Co	Co	0.5	0.5	0.5	1.126
_end
