# CIF file generated by openbabel 3.1.0, see https://openbabel.org
data_I
_chemical_name_common 'image0'
_cell_length_a 8.0491
_cell_length_b 16.7053
_cell_length_c 27.17
_cell_angle_alpha 90
_cell_angle_beta 96.675
_cell_angle_gamma 90
_space_group_name_H-M_alt 'P 1'
_space_group_name_Hall 'P 1'
loop_
    _symmetry_equiv_pos_as_xyz
    x,y,z
loop_
    _atom_site_label
    _atom_site_type_symbol
    _atom_site_fract_x
    _atom_site_fract_y
    _atom_site_fract_z
    _atom_site_occupancy
    Tb1      Tb       0.26113    0.51245    0.51830    1.000
    O1       O        0.39550    0.07560    0.08404    1.000
    O2       O        0.83720    0.87760    0.99767    1.000
    O3       O        0.50980    0.08350    0.01367    1.000
    O4       O        0.11630    0.86680    0.00257    1.000
    O5       O        0.96660    0.49560    0.43743    1.000
    C1       C        0.48630    0.11240    0.05680    1.000
    C2       C        0.96210    0.75900    0.03100    1.000
    C3       C        0.63730    0.24060    0.04090    1.000
    H1       H        0.64010    0.22560    0.00810    1.000
    C4       C        0.82040    0.71290    0.02160    1.000
    H2       H        0.73480    0.72940    0.99780    1.000
    C5       C        0.55440    0.21590    0.12140    1.000
    H3       H        0.50040    0.18440    0.14280    1.000
    C6       C        0.62510    0.28650    0.13780    1.000
    H4       H        0.61900    0.30160    0.17050    1.000
    C7       C        0.08670    0.49830    0.41138    1.000
    C8       C        0.97320    0.84110    0.00780    1.000
    C9       C        0.04670    0.49670    0.35550    1.000
    C10      C        0.56180    0.19030    0.07260    1.000
    C11      C        0.09230    0.73250    0.06560    1.000
    H5       H        0.19120    0.76160    0.07060    1.000
    C12      C        0.97290    0.49040    0.25290    1.000
    C13      C        0.92940    0.61740    0.08390    1.000
    C14      C        0.70780    0.33770    0.10700    1.000
    C15      C        0.90550    0.54570    0.11590    1.000
    C16      C        0.80380    0.64230    0.04710    1.000
    H6       H        0.70850    0.61100    0.03970    1.000
    C17      C        0.92720    0.48610    0.19790    1.000
    C18      C        0.79240    0.41220    0.12670    1.000
    C19      C        0.82100    0.47600    0.09610    1.000
    H7       H        0.78480    0.47320    0.06240    1.000
    C20      C        0.70790    0.31230    0.05750    1.000
    H8       H        0.75690    0.34480    0.03540    1.000
    C21      C        0.85160    0.47640    0.28350    1.000
    H9       H        0.74370    0.46430    0.26940    1.000
    C22      C        0.13390    0.50890    0.27400    1.000
    H10      H        0.21680    0.52000    0.25390    1.000
    C23      C        0.07530    0.66290    0.09250    1.000
    H11      H        0.16120    0.64670    0.11630    1.000
    C24      C        0.88540    0.47950    0.33520    1.000
    H12      H        0.80140    0.47030    0.35530    1.000
    C25      C        0.17160    0.51080    0.32570    1.000
    H13      H        0.28010    0.52150    0.33990    1.000
    C26      C        0.84660    0.41820    0.17780    1.000
    H14      H        0.82780    0.37570    0.19850    1.000
    C27      C        0.95920    0.54960    0.16660    1.000
    H15      H        0.01640    0.59460    0.17970    1.000
    O6       O        0.23870    0.50370    0.42784    1.000
    O7       O        0.21900    0.46700    0.44140    1.000
    Tb2      Tb       0.73887    0.01245    0.98170    1.000
    O8       O        0.60450    0.57560    0.41596    1.000
    O9       O        0.16280    0.37760    0.50233    1.000
    O10      O        0.49020    0.58350    0.48633    1.000
    O11      O        0.88370    0.36680    0.49743    1.000
    O12      O        0.03340    0.99560    0.06257    1.000
    C28      C        0.51370    0.61240    0.44320    1.000
    C29      C        0.03790    0.25900    0.46900    1.000
    C30      C        0.36270    0.74060    0.45910    1.000
    H16      H        0.35990    0.72560    0.49190    1.000
    C31      C        0.17960    0.21290    0.47840    1.000
    H17      H        0.26520    0.22940    0.50220    1.000
    C32      C        0.44560    0.71590    0.37860    1.000
    H18      H        0.49960    0.68440    0.35720    1.000
    C33      C        0.37490    0.78650    0.36220    1.000
    H19      H        0.38100    0.80160    0.32950    1.000
    C34      C        0.91330    0.99830    0.08862    1.000
    C35      C        0.02680    0.34110    0.49220    1.000
    C36      C        0.95330    0.99670    0.14450    1.000
    C37      C        0.43820    0.69030    0.42740    1.000
    C38      C        0.90770    0.23250    0.43440    1.000
    H20      H        0.80880    0.26160    0.42940    1.000
    C39      C        0.02710    0.99040    0.24710    1.000
    C40      C        0.07060    0.11740    0.41610    1.000
    C41      C        0.29220    0.83770    0.39300    1.000
    C42      C        0.09450    0.04570    0.38410    1.000
    C43      C        0.19620    0.14230    0.45290    1.000
    H21      H        0.29150    0.11100    0.46030    1.000
    C44      C        0.07280    0.98610    0.30210    1.000
    C45      C        0.20760    0.91220    0.37330    1.000
    C46      C        0.17900    0.97600    0.40390    1.000
    H22      H        0.21520    0.97320    0.43760    1.000
    C47      C        0.29210    0.81230    0.44250    1.000
    H23      H        0.24310    0.84480    0.46460    1.000
    C48      C        0.14840    0.97640    0.21650    1.000
    H24      H        0.25630    0.96430    0.23060    1.000
    C49      C        0.86610    0.00890    0.22600    1.000
    H25      H        0.78320    0.02000    0.24610    1.000
    C50      C        0.92470    0.16290    0.40750    1.000
    H26      H        0.83880    0.14670    0.38370    1.000
    C51      C        0.11460    0.97950    0.16480    1.000
    H27      H        0.19860    0.97030    0.14470    1.000
    C52      C        0.82840    0.01080    0.17430    1.000
    H28      H        0.71990    0.02150    0.16010    1.000
    C53      C        0.15340    0.91820    0.32220    1.000
    H29      H        0.17220    0.87570    0.30150    1.000
    C54      C        0.04080    0.04960    0.33340    1.000
    H30      H        0.98360    0.09460    0.32030    1.000
    O13      O        0.76130    0.00370    0.07216    1.000
    O14      O        0.78100    0.96700    0.05860    1.000
    Tb3      Tb       0.73887    0.48755    0.48170    1.000
    O15      O        0.60450    0.92440    0.91596    1.000
    O16      O        0.16280    0.12240    0.00233    1.000
    O17      O        0.49020    0.91650    0.98633    1.000
    O18      O        0.88370    0.13320    0.99743    1.000
    O19      O        0.03340    0.50440    0.56257    1.000
    C55      C        0.51370    0.88760    0.94320    1.000
    C56      C        0.03790    0.24100    0.96900    1.000
    C57      C        0.36270    0.75940    0.95910    1.000
    H31      H        0.35990    0.77440    0.99190    1.000
    C58      C        0.17960    0.28710    0.97840    1.000
    H32      H        0.26520    0.27060    0.00220    1.000
    C59      C        0.44560    0.78410    0.87860    1.000
    H33      H        0.49960    0.81560    0.85720    1.000
    C60      C        0.37490    0.71350    0.86220    1.000
    H34      H        0.38100    0.69840    0.82950    1.000
    C61      C        0.91330    0.50170    0.58862    1.000
    C62      C        0.02680    0.15890    0.99220    1.000
    C63      C        0.95330    0.50330    0.64450    1.000
    C64      C        0.43820    0.80970    0.92740    1.000
    C65      C        0.90770    0.26750    0.93440    1.000
    H35      H        0.80880    0.23840    0.92940    1.000
    C66      C        0.02710    0.50960    0.74710    1.000
    C67      C        0.07060    0.38260    0.91610    1.000
    C68      C        0.29220    0.66230    0.89300    1.000
    C69      C        0.09450    0.45430    0.88410    1.000
    C70      C        0.19620    0.35770    0.95290    1.000
    H36      H        0.29150    0.38900    0.96030    1.000
    C71      C        0.07280    0.51390    0.80210    1.000
    C72      C        0.20760    0.58780    0.87330    1.000
    C73      C        0.17900    0.52400    0.90390    1.000
    H37      H        0.21520    0.52680    0.93760    1.000
    C74      C        0.29210    0.68770    0.94250    1.000
    H38      H        0.24310    0.65520    0.96460    1.000
    C75      C        0.14840    0.52360    0.71650    1.000
    H39      H        0.25630    0.53570    0.73060    1.000
    C76      C        0.86610    0.49110    0.72600    1.000
    H40      H        0.78320    0.48000    0.74610    1.000
    C77      C        0.92470    0.33710    0.90750    1.000
    H41      H        0.83880    0.35330    0.88370    1.000
    C78      C        0.11460    0.52050    0.66480    1.000
    H42      H        0.19860    0.52970    0.64470    1.000
    C79      C        0.82840    0.48920    0.67430    1.000
    H43      H        0.71990    0.47850    0.66010    1.000
    C80      C        0.15340    0.58180    0.82220    1.000
    H44      H        0.17220    0.62430    0.80150    1.000
    C81      C        0.04080    0.45040    0.83340    1.000
    H45      H        0.98360    0.40540    0.82030    1.000
    O20      O        0.76130    0.49630    0.57216    1.000
    O21      O        0.78100    0.53300    0.55860    1.000
    Tb4      Tb       0.26113    0.98755    0.01830    1.000
    O22      O        0.39550    0.42440    0.58404    1.000
    O23      O        0.83720    0.62240    0.49767    1.000
    O24      O        0.50980    0.41650    0.51367    1.000
    O25      O        0.11630    0.63320    0.50257    1.000
    O26      O        0.96660    0.00440    0.93743    1.000
    C82      C        0.48630    0.38760    0.55680    1.000
    C83      C        0.96210    0.74100    0.53100    1.000
    C84      C        0.63730    0.25940    0.54090    1.000
    H46      H        0.64010    0.27440    0.50810    1.000
    C85      C        0.82040    0.78710    0.52160    1.000
    H47      H        0.73480    0.77060    0.49780    1.000
    C86      C        0.55440    0.28410    0.62140    1.000
    H48      H        0.50040    0.31560    0.64280    1.000
    C87      C        0.62510    0.21350    0.63780    1.000
    H49      H        0.61900    0.19840    0.67050    1.000
    C88      C        0.08670    0.00170    0.91138    1.000
    C89      C        0.97320    0.65890    0.50780    1.000
    C90      C        0.04670    0.00330    0.85550    1.000
    C91      C        0.56180    0.30970    0.57260    1.000
    C92      C        0.09230    0.76750    0.56560    1.000
    H50      H        0.19120    0.73840    0.57060    1.000
    C93      C        0.97290    0.00960    0.75290    1.000
    C94      C        0.92940    0.88260    0.58390    1.000
    C95      C        0.70780    0.16230    0.60700    1.000
    C96      C        0.90550    0.95430    0.61590    1.000
    C97      C        0.80380    0.85770    0.54710    1.000
    H51      H        0.70850    0.88900    0.53970    1.000
    C98      C        0.92720    0.01390    0.69790    1.000
    C99      C        0.79240    0.08780    0.62670    1.000
    C100     C        0.82100    0.02400    0.59610    1.000
    H52      H        0.78480    0.02680    0.56240    1.000
    C101     C        0.70790    0.18770    0.55750    1.000
    H53      H        0.75690    0.15520    0.53540    1.000
    C102     C        0.85160    0.02360    0.78350    1.000
    H54      H        0.74370    0.03570    0.76940    1.000
    C103     C        0.13390    0.99110    0.77400    1.000
    H55      H        0.21680    0.98000    0.75390    1.000
    C104     C        0.07530    0.83710    0.59250    1.000
    H56      H        0.16120    0.85330    0.61630    1.000
    C105     C        0.88540    0.02050    0.83520    1.000
    H57      H        0.80140    0.02970    0.85530    1.000
    C106     C        0.17160    0.98920    0.82570    1.000
    H58      H        0.28010    0.97850    0.83990    1.000
    C107     C        0.84660    0.08180    0.67780    1.000
    H59      H        0.82780    0.12430    0.69850    1.000
    C108     C        0.95920    0.95040    0.66660    1.000
    H60      H        0.01640    0.90540    0.67970    1.000
    O27      O        0.23870    0.99630    0.92784    1.000
    O28      O        0.21900    0.03300    0.94140    1.000
