data_functionalizedCrystal
_audit_creation_method	'EQeq! by Chris Wilmer'
_symmetry_space_group_name_H-M	'P1'
_symmetry_Int_Tables_number	1
_symmetry_cell_setting	triclinic
loop_
_symmetry_equiv_pos_as_xyz
  x,y,z
_cell_length_a	12.5898
_cell_length_b	14.9339
_cell_length_c	19.739
_cell_angle_alpha	111.35
_cell_angle_beta	101.661
_cell_angle_gamma	93.977
loop_
_atom_site_label
_atom_site_type_symbol
_atom_site_fract_x
_atom_site_fract_y
_atom_site_fract_z
_atom_site_charge
Mof_Na	Na	0.8943	0.4103	0.4214	2.227
Mof_Na	Na	0.0219	0.0268	0.4264	2.142
Mof_Na	Na	0.6213	0.1084	0.3872	1.619
Mof_Na	Na	0.8305	0.4255	0.1364	1.884
Mof_Na	Na	0.3569	0.4618	0.9528	1.493
Mof_Na	Na	0.0571	0.1453	0.7582	0.771
Mof_Na	Na	0.1057	0.5897	0.5786	2.294
Mof_Na	Na	0.9781	0.9732	0.5736	2.493
Mof_Na	Na	0.3787	0.8916	0.6128	1.811
Mof_Na	Na	0.1695	0.5745	0.8636	1.942
Mof_Na	Na	0.6431	0.5382	0.0472	1.533
Mof_Na	Na	0.9429	0.8547	0.2418	0.981
Mof_Na	Na	0.5	3.40036e-17	0.5	1.765
Mof_Fe	Fe	0.34663	0.35335	0.48166	1.095
Mof_Fe	Fe	0.79497	0.31641	0.56353	1.015
Mof_Fe	Fe	0.65337	0.64665	0.51834	1.095
Mof_Fe	Fe	0.20503	0.68359	0.43647	1.018
Mof_Sb	Sb	0.40051	0.49158	0.35593	0.616
Mof_Sb	Sb	0.59949	0.50842	0.64407	0.617
Mof_W 	W 	0.60529	0.37471	0.41946	1.278
Mof_W 	W 	0.45745	0.22825	0.24635	0.874
Mof_W 	W 	0.64618	0.41071	0.26783	1.366
Mof_W 	W 	0.59635	0.66472	0.34157	0.996
Mof_W 	W 	0.45035	0.5227	0.17065	1.306
Mof_W 	W 	0.33286	0.68093	0.29261	0.932
Mof_W 	W 	0.1202	0.47793	0.26567	1.288
Mof_W 	W 	0.23922	0.31884	0.14597	0.883
Mof_W 	W 	0.19416	0.28243	0.29355	0.958
Mof_W 	W 	0.39471	0.62529	0.58054	1.276
Mof_W 	W 	0.54255	0.77175	0.75365	0.899
Mof_W 	W 	0.35382	0.58929	0.73217	1.37
Mof_W 	W 	0.40365	0.33528	0.65843	0.99
Mof_W 	W 	0.54965	0.4773	0.82935	1.306
Mof_W 	W 	0.66714	0.31907	0.70739	0.911
Mof_W 	W 	0.8798	0.52207	0.73433	1.261
Mof_W 	W 	0.76078	0.68116	0.85403	0.89
Mof_W 	W 	0.80584	0.71757	0.70645	0.962
Mof_C 	C 	0.1537	0.2343	0.4775	0.202
Mof_C 	C 	0.2305	0.1638	0.4424	0.238
Mof_C 	C 	0.9178	0.1814	0.6026	0.266
Mof_C 	C 	0.8522	0.1257	0.5207	0.292
Mof_C 	C 	0.8463	0.7657	0.5225	0.21
Mof_C 	C 	0.7695	0.8362	0.5576	0.233
Mof_C 	C 	0.0822	0.8186	0.3974	0.266
Mof_C 	C 	0.1478	0.8743	0.4793	0.308
Mof_O 	O 	0.7001	0.333	0.4767	-0.663
Mof_O 	O 	0.4809	0.3591	0.4474	-0.524
Mof_O 	O 	0.6389	0.5042	0.4663	-0.543
Mof_O 	O 	0.7044	0.384	0.3522	-0.806
Mof_O 	O 	0.5526	0.2398	0.3354	-0.662
Mof_O 	O 	0.5023	0.3964	0.3221	-0.424
Mof_O 	O 	0.329	0.2295	0.2836	-0.486
Mof_O 	O 	0.5772	0.2758	0.215	-0.542
Mof_O 	O 	0.3689	0.2728	0.1727	-0.466
Mof_O 	O 	0.7567	0.4021	0.2284	-0.782
Mof_O 	O 	0.6639	0.5462	0.3229	-0.522
Mof_O 	O 	0.5371	0.4342	0.1934	-0.537
Mof_O 	O 	0.4282	0.3431	0.5736	-0.48
Mof_O 	O 	0.4841	0.7454	0.3308	-0.497
Mof_O 	O 	0.5747	0.6222	0.2321	-0.521
Mof_O 	O 	0.4335	0.5617	0.2917	-0.417
Mof_O 	O 	0.467	0.5132	0.0834	-0.825
Mof_O 	O 	0.3228	0.4292	0.1414	-0.542
Mof_O 	O 	0.3638	0.6263	0.1919	-0.531
Mof_O 	O 	0.6767	0.3036	0.6121	-0.477
Mof_O 	O 	0.2083	0.5793	0.2527	-0.508
Mof_O 	O 	0.9895	0.5047	0.2437	-0.719
Mof_O 	O 	0.8331	0.452	0.6321	-0.506
Mof_O 	O 	0.1228	0.3963	0.1629	-0.571
Mof_O 	O 	0.0812	0.3609	0.2823	-0.56
Mof_O 	O 	0.2741	0.4077	0.2726	-0.405
Mof_O 	O 	0.1686	0.2365	0.1836	-0.52
Mof_O 	O 	0.2595	0.3597	0.3894	-0.479
Mof_O 	O 	0.3184	0.2041	0.437	-0.41
Mof_O 	O 	0.1968	0.3246	0.5042	-0.392
Mof_O 	O 	0.9018	0.2691	0.6311	-0.431
Mof_O 	O 	0.7811	0.1723	0.4966	-0.634
Mof_O 	O 	0.9292	0.3378	0.5182	-0.55
Mof_O 	O 	0.8686	0.0437	0.4852	-0.872
Mof_O 	O 	0.2007	0.0754	0.4214	-0.639
Mof_O 	O 	0.0616	0.2025	0.4782	-0.569
Mof_O 	O 	0.9779	0.1388	0.6333	-0.826
Mof_O 	O 	0.9118	0.5419	0.5402	-0.731
Mof_O 	O 	0.6242	0.9556	0.4166	-0.633
Mof_O 	O 	0.6667	0.3771	0.0383	-0.766
Mof_O 	O 	0.7589	0.5791	0.1694	-0.719
Mof_O 	O 	0.5259	0.1523	0.4859	-0.632
Mof_O 	O 	0.9651	0.0282	0.3035	-0.774
Mof_O 	O 	0.2999	0.667	0.5233	-0.674
Mof_O 	O 	0.5191	0.6409	0.5526	-0.526
Mof_O 	O 	0.3611	0.4958	0.5337	-0.544
Mof_O 	O 	0.2956	0.616	0.6478	-0.813
Mof_O 	O 	0.4474	0.7602	0.6646	-0.676
Mof_O 	O 	0.4977	0.6036	0.6779	-0.426
Mof_O 	O 	0.671	0.7705	0.7164	-0.483
Mof_O 	O 	0.4228	0.7242	0.785	-0.536
Mof_O 	O 	0.6311	0.7272	0.8273	-0.462
Mof_O 	O 	0.2433	0.5979	0.7716	-0.784
Mof_O 	O 	0.3361	0.4538	0.6771	-0.522
Mof_O 	O 	0.4629	0.5658	0.8066	-0.536
Mof_O 	O 	0.5718	0.6569	0.4264	-0.48
Mof_O 	O 	0.5159	0.2546	0.6692	-0.508
Mof_O 	O 	0.4253	0.3778	0.7679	-0.524
Mof_O 	O 	0.5665	0.4383	0.7083	-0.414
Mof_O 	O 	0.533	0.4868	0.9166	-0.831
Mof_O 	O 	0.6772	0.5708	0.8586	-0.544
Mof_O 	O 	0.6362	0.3737	0.8081	-0.54
Mof_O 	O 	0.3233	0.6964	0.3879	-0.477
Mof_O 	O 	0.7917	0.4207	0.7473	-0.508
Mof_O 	O 	0.0105	0.4953	0.7563	-0.7
Mof_O 	O 	0.1669	0.548	0.3679	-0.507
Mof_O 	O 	0.8772	0.6037	0.8371	-0.577
Mof_O 	O 	0.9188	0.6391	0.7177	-0.566
Mof_O 	O 	0.7259	0.5923	0.7274	-0.404
Mof_O 	O 	0.8314	0.7635	0.8164	-0.512
Mof_O 	O 	0.7405	0.6403	0.6106	-0.48
Mof_O 	O 	0.6816	0.7959	0.563	-0.403
Mof_O 	O 	0.8032	0.6754	0.4958	-0.397
Mof_O 	O 	0.0982	0.7309	0.3689	-0.424
Mof_O 	O 	0.2189	0.8277	0.5034	-0.647
Mof_O 	O 	0.0708	0.6622	0.4818	-0.547
Mof_O 	O 	0.1314	0.9563	0.5148	-0.821
Mof_O 	O 	0.7993	0.9246	0.5786	-0.643
Mof_O 	O 	0.9384	0.7975	0.5218	-0.62
Mof_O 	O 	0.0221	0.8612	0.3667	-0.757
Mof_O 	O 	0.0882	0.4581	0.4598	-0.719
Mof_O 	O 	0.3758	0.0444	0.5834	-0.724
Mof_O 	O 	0.3333	0.6229	0.9617	-0.759
Mof_O 	O 	0.2411	0.4209	0.8306	-0.716
Mof_O 	O 	0.4741	0.8477	0.5141	-0.627
Mof_O 	O 	0.0349	0.9718	0.6965	-0.721
_end
