# CIF file generated by openbabel 3.1.0, see https://openbabel.org
data_I
_chemical_name_common 'image0'
_cell_length_a 10.4803
_cell_length_b 17.8855
_cell_length_c 17.8364
_cell_angle_alpha 90
_cell_angle_beta 105.744
_cell_angle_gamma 90
_space_group_name_H-M_alt 'P 1'
_space_group_name_Hall 'P 1'
loop_
    _symmetry_equiv_pos_as_xyz
    x,y,z
loop_
    _atom_site_label
    _atom_site_type_symbol
    _atom_site_fract_x
    _atom_site_fract_y
    _atom_site_fract_z
    _atom_site_occupancy
    C1       C        0.71820    0.04130    0.47000    1.000
    C2       C        0.85430    0.07230    0.47580    1.000
    C3       C        0.89800    0.08110    0.40920    1.000
    H1       H        0.84010    0.07210    0.36040    1.000
    C4       C        0.02780    0.10320    0.41530    1.000
    C5       C        0.11110    0.11960    0.48750    1.000
    H2       H        0.19790    0.13490    0.49260    1.000
    C6       C        0.06360    0.11300    0.55190    1.000
    C7       C        0.93800    0.08860    0.54790    1.000
    H3       H        0.91000    0.08310    0.59280    1.000
    C8       C        0.08020    0.10530    0.34470    1.000
    C9       C        0.36300    0.17160    0.26050    1.000
    C10      C        0.43650    0.24210    0.29090    1.000
    C11      C        0.37780    0.31090    0.26830    1.000
    H4       H        0.29730    0.31300    0.23010    1.000
    C12      C        0.43680    0.37630    0.30150    1.000
    C13      C        0.55790    0.37300    0.35780    1.000
    H5       H        0.59910    0.41650    0.38100    1.000
    C14      C        0.61540    0.30440    0.37840    1.000
    C15      C        0.55800    0.23850    0.34670    1.000
    H6       H        0.59920    0.19280    0.36220    1.000
    C16      C        0.37020    0.45100    0.27850    1.000
    C17      C        0.47540    0.14270    0.52750    1.000
    C18      C        0.44640    0.22570    0.53130    1.000
    C19      C        0.50820    0.26640    0.59720    1.000
    H7       H        0.56500    0.24130    0.63870    1.000
    C20      C        0.40720    0.37520    0.54540    1.000
    H8       H        0.39350    0.42620    0.54970    1.000
    C21      C        0.33980    0.33830    0.47770    1.000
    H9       H        0.28090    0.36430    0.43780    1.000
    C22      C        0.36080    0.26320    0.47000    1.000
    H10      H        0.31830    0.23810    0.42450    1.000
    Eu1      Eu       0.40273    0.01465    0.37277    1.000
    N1       N        0.15420    0.12910    0.62990    1.000
    N2       N        0.72340    0.30050    0.45590    1.000
    O1       O        0.75780    0.35700    0.49360    1.000
    O2       O        0.76690    0.24190    0.48140    1.000
    N3       N        0.49090    0.33980    0.60440    1.000
    O3       O        0.63860    0.03420    0.40360    1.000
    O4       O        0.69400    0.02340    0.53220    1.000
    O5       O        0.99860    0.11620    0.27950    1.000
    O6       O        0.20070    0.09720    0.35270    1.000
    O7       O        0.24800    0.18010    0.62910    1.000
    O8       O        0.10980    0.13490    0.68460    1.000
    O9       O        0.41520    0.10980    0.28330    1.000
    O10      O        0.24760    0.17990    0.21480    1.000
    O11      O        0.28240    0.45490    0.21660    1.000
    O12      O        0.41000    0.50420    0.32580    1.000
    O13      O        0.44980    0.11540    0.46110    1.000
    O14      O        0.52150    0.11010    0.59100    1.000
    Zn1      Zn       0.10342    0.10878    0.20214    1.000
    N4       N        0.75510    0.30130    0.42330    1.000
    O15      O        0.81310    0.35840    0.44910    1.000
    O16      O        0.81310    0.24490    0.43910    1.000
    O17      O        0.26840    0.14310    0.63580    1.000
    O18      O        0.12880    0.08960    0.68630    1.000
    C23      C        0.78180    0.54130    0.03000    1.000
    C24      C        0.64570    0.57230    0.02420    1.000
    C25      C        0.60200    0.58110    0.09080    1.000
    H11      H        0.65990    0.57210    0.13960    1.000
    C26      C        0.47220    0.60320    0.08470    1.000
    C27      C        0.38890    0.61960    0.01250    1.000
    H12      H        0.30210    0.63490    0.00740    1.000
    C28      C        0.43640    0.61300    0.94810    1.000
    C29      C        0.56200    0.58860    0.95210    1.000
    H13      H        0.59000    0.58310    0.90720    1.000
    C30      C        0.41980    0.60530    0.15530    1.000
    C31      C        0.13700    0.67160    0.23950    1.000
    C32      C        0.06350    0.74210    0.20910    1.000
    C33      C        0.12220    0.81090    0.23170    1.000
    H14      H        0.20270    0.81300    0.26990    1.000
    C34      C        0.06320    0.87630    0.19850    1.000
    C35      C        0.94210    0.87300    0.14220    1.000
    H15      H        0.90090    0.91650    0.11900    1.000
    C36      C        0.88460    0.80440    0.12160    1.000
    C37      C        0.94200    0.73850    0.15330    1.000
    H16      H        0.90080    0.69280    0.13780    1.000
    C38      C        0.12980    0.95100    0.22150    1.000
    C39      C        0.02460    0.64270    0.97250    1.000
    C40      C        0.05360    0.72570    0.96870    1.000
    C41      C        0.99180    0.76640    0.90280    1.000
    H17      H        0.93500    0.74130    0.86130    1.000
    C42      C        0.09280    0.87520    0.95460    1.000
    H18      H        0.10650    0.92620    0.95030    1.000
    C43      C        0.16020    0.83830    0.02230    1.000
    H19      H        0.21910    0.86430    0.06220    1.000
    C44      C        0.13920    0.76320    0.03000    1.000
    H20      H        0.18170    0.73810    0.07550    1.000
    Eu2      Eu       0.09727    0.51465    0.12723    1.000
    N5       N        0.34580    0.62910    0.87010    1.000
    N6       N        0.77660    0.80050    0.04410    1.000
    O19      O        0.74220    0.85700    0.00640    1.000
    O20      O        0.73310    0.74190    0.01860    1.000
    N7       N        0.00910    0.83980    0.89560    1.000
    O21      O        0.86140    0.53420    0.09640    1.000
    O22      O        0.80600    0.52340    0.96780    1.000
    O23      O        0.50140    0.61620    0.22050    1.000
    O24      O        0.29930    0.59720    0.14730    1.000
    O25      O        0.25200    0.68010    0.87090    1.000
    O26      O        0.39020    0.63490    0.81540    1.000
    O27      O        0.08480    0.60980    0.21670    1.000
    O28      O        0.25240    0.67990    0.28520    1.000
    O29      O        0.21760    0.95490    0.28340    1.000
    O30      O        0.09000    0.00420    0.17420    1.000
    O31      O        0.05020    0.61540    0.03890    1.000
    O32      O        0.97850    0.61010    0.90900    1.000
    Zn2      Zn       0.39658    0.60878    0.29786    1.000
    N8       N        0.74490    0.80130    0.07670    1.000
    O33      O        0.68690    0.85840    0.05090    1.000
    O34      O        0.68690    0.74490    0.06090    1.000
    O35      O        0.23160    0.64310    0.86420    1.000
    O36      O        0.37120    0.58960    0.81370    1.000
    C45      C        0.28180    0.95870    0.53000    1.000
    C46      C        0.14570    0.92770    0.52420    1.000
    C47      C        0.10200    0.91890    0.59080    1.000
    H21      H        0.15990    0.92790    0.63960    1.000
    C48      C        0.97220    0.89680    0.58470    1.000
    C49      C        0.88890    0.88040    0.51250    1.000
    H22      H        0.80210    0.86510    0.50740    1.000
    C50      C        0.93640    0.88700    0.44810    1.000
    C51      C        0.06200    0.91140    0.45210    1.000
    H23      H        0.09000    0.91690    0.40720    1.000
    C52      C        0.91980    0.89470    0.65530    1.000
    C53      C        0.63700    0.82840    0.73950    1.000
    C54      C        0.56350    0.75790    0.70910    1.000
    C55      C        0.62220    0.68910    0.73170    1.000
    H24      H        0.70270    0.68700    0.76990    1.000
    C56      C        0.56320    0.62370    0.69850    1.000
    C57      C        0.44210    0.62700    0.64220    1.000
    H25      H        0.40090    0.58350    0.61900    1.000
    C58      C        0.38460    0.69560    0.62160    1.000
    C59      C        0.44200    0.76150    0.65330    1.000
    H26      H        0.40080    0.80720    0.63780    1.000
    C60      C        0.62980    0.54900    0.72150    1.000
    C61      C        0.52460    0.85730    0.47250    1.000
    C62      C        0.55360    0.77430    0.46870    1.000
    C63      C        0.49180    0.73360    0.40280    1.000
    H27      H        0.43500    0.75870    0.36130    1.000
    C64      C        0.59280    0.62480    0.45460    1.000
    H28      H        0.60650    0.57380    0.45030    1.000
    C65      C        0.66020    0.66170    0.52230    1.000
    H29      H        0.71910    0.63570    0.56220    1.000
    C66      C        0.63920    0.73680    0.53000    1.000
    H30      H        0.68170    0.76190    0.57550    1.000
    Eu3      Eu       0.59727    0.98535    0.62723    1.000
    N9       N        0.84580    0.87090    0.37010    1.000
    N10      N        0.27660    0.69950    0.54410    1.000
    O37      O        0.24220    0.64300    0.50640    1.000
    O38      O        0.23310    0.75810    0.51860    1.000
    N11      N        0.50910    0.66020    0.39560    1.000
    O39      O        0.36140    0.96580    0.59640    1.000
    O40      O        0.30600    0.97660    0.46780    1.000
    O41      O        0.00140    0.88380    0.72050    1.000
    O42      O        0.79930    0.90280    0.64730    1.000
    O43      O        0.75200    0.81990    0.37090    1.000
    O44      O        0.89020    0.86510    0.31540    1.000
    O45      O        0.58480    0.89020    0.71670    1.000
    O46      O        0.75240    0.82010    0.78520    1.000
    O47      O        0.71760    0.54510    0.78340    1.000
    O48      O        0.59000    0.49580    0.67420    1.000
    O49      O        0.55020    0.88460    0.53890    1.000
    O50      O        0.47850    0.88990    0.40900    1.000
    Zn3      Zn       0.89658    0.89122    0.79786    1.000
    N12      N        0.24490    0.69870    0.57670    1.000
    O51      O        0.18690    0.64160    0.55090    1.000
    O52      O        0.18690    0.75510    0.56090    1.000
    O53      O        0.73160    0.85690    0.36420    1.000
    O54      O        0.87120    0.91040    0.31370    1.000
    C67      C        0.21820    0.45870    0.97000    1.000
    C68      C        0.35430    0.42770    0.97580    1.000
    C69      C        0.39800    0.41890    0.90920    1.000
    H31      H        0.34010    0.42790    0.86040    1.000
    C70      C        0.52780    0.39680    0.91530    1.000
    C71      C        0.61110    0.38040    0.98750    1.000
    H32      H        0.69790    0.36510    0.99260    1.000
    C72      C        0.56360    0.38700    0.05190    1.000
    C73      C        0.43800    0.41140    0.04790    1.000
    H33      H        0.41000    0.41690    0.09280    1.000
    C74      C        0.58020    0.39470    0.84470    1.000
    C75      C        0.86300    0.32840    0.76050    1.000
    C76      C        0.93650    0.25790    0.79090    1.000
    C77      C        0.87780    0.18910    0.76830    1.000
    H34      H        0.79730    0.18700    0.73010    1.000
    C78      C        0.93680    0.12370    0.80150    1.000
    C79      C        0.05790    0.12700    0.85780    1.000
    H35      H        0.09910    0.08350    0.88100    1.000
    C80      C        0.11540    0.19560    0.87840    1.000
    C81      C        0.05800    0.26150    0.84670    1.000
    H36      H        0.09920    0.30720    0.86220    1.000
    C82      C        0.87020    0.04900    0.77850    1.000
    C83      C        0.97540    0.35730    0.02750    1.000
    C84      C        0.94640    0.27430    0.03130    1.000
    C85      C        0.00820    0.23360    0.09720    1.000
    H37      H        0.06500    0.25870    0.13870    1.000
    C86      C        0.90720    0.12480    0.04540    1.000
    H38      H        0.89350    0.07380    0.04970    1.000
    C87      C        0.83980    0.16170    0.97770    1.000
    H39      H        0.78090    0.13570    0.93780    1.000
    C88      C        0.86080    0.23680    0.97000    1.000
    H40      H        0.81830    0.26190    0.92450    1.000
    Eu4      Eu       0.90273    0.48535    0.87277    1.000
    N13      N        0.65420    0.37090    0.12990    1.000
    N14      N        0.22340    0.19950    0.95590    1.000
    O55      O        0.25780    0.14300    0.99360    1.000
    O56      O        0.26690    0.25810    0.98140    1.000
    N15      N        0.99090    0.16020    0.10440    1.000
    O57      O        0.13860    0.46580    0.90360    1.000
    O58      O        0.19400    0.47660    0.03220    1.000
    O59      O        0.49860    0.38380    0.77950    1.000
    O60      O        0.70070    0.40280    0.85270    1.000
    O61      O        0.74800    0.31990    0.12910    1.000
    O62      O        0.60980    0.36510    0.18460    1.000
    O63      O        0.91520    0.39020    0.78330    1.000
    O64      O        0.74760    0.32010    0.71480    1.000
    O65      O        0.78240    0.04510    0.71660    1.000
    O66      O        0.91000    0.99580    0.82580    1.000
    O67      O        0.94980    0.38460    0.96110    1.000
    O68      O        0.02150    0.38990    0.09100    1.000
    Zn4      Zn       0.60342    0.39122    0.70214    1.000
    N16      N        0.25510    0.19870    0.92330    1.000
    O69      O        0.31310    0.14160    0.94910    1.000
    O70      O        0.31310    0.25510    0.93910    1.000
    O71      O        0.76840    0.35690    0.13580    1.000
    O72      O        0.62880    0.41040    0.18630    1.000
