# CIF file generated by openbabel 3.1.0, see https://openbabel.org
data_I
_chemical_name_common 'VAZROF_clean'
_cell_length_a 11.479
_cell_length_b 24.451
_cell_length_c 16.299
_cell_angle_alpha 90
_cell_angle_beta 90
_cell_angle_gamma 90
_space_group_name_H-M_alt 'P 1'
_space_group_name_Hall 'P 1'
loop_
    _symmetry_equiv_pos_as_xyz
    x,y,z
loop_
    _atom_site_label
    _atom_site_type_symbol
    _atom_site_fract_x
    _atom_site_fract_y
    _atom_site_fract_z
    _atom_site_occupancy
    Fe1      Fe       0.64456    0.45428    0.34645    1.000
    Fe2      Fe       0.64456    0.54572    0.15355    1.000
    Fe3      Fe       0.64456    0.95428    0.65355    1.000
    Fe4      Fe       0.64456    0.04572    0.84645    1.000
    H1       H        0.43730    0.51360    0.43080    1.000
    H2       H        0.23500    0.51410    0.43170    1.000
    H3       H        0.23370    0.39940    0.25480    1.000
    H4       H        0.43490    0.39920    0.25390    1.000
    H5       H        0.05720    0.52390    0.41110    1.000
    H6       H        0.85580    0.52410    0.40960    1.000
    H7       H        0.85540    0.38610    0.27610    1.000
    H8       H        0.05720    0.38500    0.27910    1.000
    H9       H        0.64740    0.61380    0.50540    1.000
    H10      H        0.63890    0.65510    0.26860    1.000
    H11      H        0.64420    0.74700    0.30160    1.000
    H12      H        0.65550    0.68460    0.60910    1.000
    H13      H        0.65800    0.77590    0.64460    1.000
    H14      H        0.65270    0.81770    0.40690    1.000
    H15      H        0.43730    0.48640    0.06920    1.000
    H16      H        0.23500    0.48590    0.06830    1.000
    H17      H        0.23370    0.60060    0.24520    1.000
    H18      H        0.43490    0.60080    0.24610    1.000
    H19      H        0.05720    0.47610    0.08890    1.000
    H20      H        0.85580    0.47590    0.09040    1.000
    H21      H        0.85540    0.61390    0.22390    1.000
    H22      H        0.05720    0.61500    0.22090    1.000
    H23      H        0.64740    0.38620    0.99460    1.000
    H24      H        0.63890    0.34490    0.23140    1.000
    H25      H        0.64420    0.25300    0.19840    1.000
    H26      H        0.65550    0.31540    0.89090    1.000
    H27      H        0.65800    0.22410    0.85540    1.000
    H28      H        0.65270    0.18230    0.09310    1.000
    H29      H        0.43730    0.01360    0.56920    1.000
    H30      H        0.23500    0.01410    0.56830    1.000
    H31      H        0.23370    0.89940    0.74520    1.000
    H32      H        0.43490    0.89920    0.74610    1.000
    H33      H        0.05720    0.02390    0.58890    1.000
    H34      H        0.85580    0.02410    0.59040    1.000
    H35      H        0.85540    0.88610    0.72390    1.000
    H36      H        0.05720    0.88500    0.72090    1.000
    H37      H        0.64740    0.11380    0.49460    1.000
    H38      H        0.63890    0.15510    0.73140    1.000
    H39      H        0.64420    0.24700    0.69840    1.000
    H40      H        0.65550    0.18460    0.39090    1.000
    H41      H        0.65800    0.27590    0.35540    1.000
    H42      H        0.65270    0.31770    0.59310    1.000
    H43      H        0.43730    0.98640    0.93080    1.000
    H44      H        0.23500    0.98590    0.93170    1.000
    H45      H        0.23370    0.10060    0.75480    1.000
    H46      H        0.43490    0.10080    0.75390    1.000
    H47      H        0.05720    0.97610    0.91110    1.000
    H48      H        0.85580    0.97590    0.90960    1.000
    H49      H        0.85540    0.11390    0.77610    1.000
    H50      H        0.05720    0.11500    0.77910    1.000
    H51      H        0.64740    0.88620    0.00540    1.000
    H52      H        0.63890    0.84490    0.76860    1.000
    H53      H        0.64420    0.75300    0.80160    1.000
    H54      H        0.65550    0.81540    0.10910    1.000
    H55      H        0.65800    0.72410    0.14460    1.000
    H56      H        0.65270    0.68230    0.90690    1.000
    C1       C        0.39620    0.49080    0.39540    1.000
    C2       C        0.27490    0.49120    0.39590    1.000
    C3       C        0.21350    0.45710    0.34280    1.000
    C4       C        0.27440    0.42240    0.28990    1.000
    C5       C        0.39490    0.42220    0.28940    1.000
    C6       C        0.07820    0.45440    0.34460    1.000
    C7       C        0.01700    0.49620    0.38420    1.000
    C8       C        0.89630    0.49620    0.38340    1.000
    C9       C        0.89580    0.41350    0.30380    1.000
    C10      C        0.01690    0.41310    0.30500    1.000
    C11      C        0.64380    0.56820    0.35250    1.000
    C12      C        0.64690    0.64050    0.46480    1.000
    C13      C        0.64290    0.62560    0.38280    1.000
    C14      C        0.64180    0.66550    0.32340    1.000
    C15      C        0.64500    0.72060    0.34260    1.000
    C16      C        0.64930    0.73520    0.42450    1.000
    C17      C        0.65020    0.69540    0.48620    1.000
    C18      C        0.65420    0.71120    0.56830    1.000
    C19      C        0.65630    0.76580    0.58950    1.000
    C20      C        0.65590    0.80600    0.52890    1.000
    C21      C        0.65270    0.79090    0.44730    1.000
    C22      C        0.65290    0.86800    0.55220    1.000
    C23      C        0.39620    0.50920    0.10460    1.000
    C24      C        0.27490    0.50880    0.10410    1.000
    C25      C        0.21350    0.54290    0.15720    1.000
    C26      C        0.27440    0.57760    0.21010    1.000
    C27      C        0.39490    0.57780    0.21060    1.000
    C28      C        0.07820    0.54560    0.15540    1.000
    C29      C        0.01700    0.50380    0.11580    1.000
    C30      C        0.89630    0.50380    0.11660    1.000
    C31      C        0.89580    0.58650    0.19620    1.000
    C32      C        0.01690    0.58690    0.19500    1.000
    C33      C        0.64380    0.43180    0.14750    1.000
    C34      C        0.64690    0.35950    0.03520    1.000
    C35      C        0.64290    0.37440    0.11720    1.000
    C36      C        0.64180    0.33450    0.17660    1.000
    C37      C        0.64500    0.27940    0.15740    1.000
    C38      C        0.64930    0.26480    0.07550    1.000
    C39      C        0.65020    0.30460    0.01380    1.000
    C40      C        0.65420    0.28880    0.93170    1.000
    C41      C        0.65630    0.23420    0.91050    1.000
    C42      C        0.65590    0.19400    0.97110    1.000
    C43      C        0.65270    0.20910    0.05270    1.000
    C44      C        0.65290    0.13200    0.94780    1.000
    C45      C        0.39620    0.99080    0.60460    1.000
    C46      C        0.27490    0.99120    0.60410    1.000
    C47      C        0.21350    0.95710    0.65720    1.000
    C48      C        0.27440    0.92240    0.71010    1.000
    C49      C        0.39490    0.92220    0.71060    1.000
    C50      C        0.07820    0.95440    0.65540    1.000
    C51      C        0.01700    0.99620    0.61580    1.000
    C52      C        0.89630    0.99620    0.61660    1.000
    C53      C        0.89580    0.91350    0.69620    1.000
    C54      C        0.01690    0.91310    0.69500    1.000
    C55      C        0.64380    0.06820    0.64750    1.000
    C56      C        0.64690    0.14050    0.53520    1.000
    C57      C        0.64290    0.12560    0.61720    1.000
    C58      C        0.64180    0.16550    0.67660    1.000
    C59      C        0.64500    0.22060    0.65740    1.000
    C60      C        0.64930    0.23520    0.57550    1.000
    C61      C        0.65020    0.19540    0.51380    1.000
    C62      C        0.65420    0.21120    0.43170    1.000
    C63      C        0.65630    0.26580    0.41050    1.000
    C64      C        0.65590    0.30600    0.47110    1.000
    C65      C        0.65270    0.29090    0.55270    1.000
    C66      C        0.65290    0.36800    0.44780    1.000
    C67      C        0.39620    0.00920    0.89540    1.000
    C68      C        0.27490    0.00880    0.89590    1.000
    C69      C        0.21350    0.04290    0.84280    1.000
    C70      C        0.27440    0.07760    0.78990    1.000
    C71      C        0.39490    0.07780    0.78940    1.000
    C72      C        0.07820    0.04560    0.84460    1.000
    C73      C        0.01700    0.00380    0.88420    1.000
    C74      C        0.89630    0.00380    0.88340    1.000
    C75      C        0.89580    0.08650    0.80380    1.000
    C76      C        0.01690    0.08690    0.80500    1.000
    C77      C        0.64380    0.93180    0.85250    1.000
    C78      C        0.64690    0.85950    0.96480    1.000
    C79      C        0.64290    0.87440    0.88280    1.000
    C80      C        0.64180    0.83450    0.82340    1.000
    C81      C        0.64500    0.77940    0.84260    1.000
    C82      C        0.64930    0.76480    0.92450    1.000
    C83      C        0.65020    0.80460    0.98620    1.000
    C84      C        0.65420    0.78880    0.06830    1.000
    C85      C        0.65630    0.73420    0.08950    1.000
    C86      C        0.65590    0.69400    0.02890    1.000
    C87      C        0.65270    0.70910    0.94730    1.000
    C88      C        0.65290    0.63200    0.05220    1.000
    N1       N        0.45610    0.45656    0.34210    1.000
    N2       N        0.83520    0.45485    0.34390    1.000
    N3       N        0.45610    0.54344    0.15790    1.000
    N4       N        0.83520    0.54515    0.15610    1.000
    N5       N        0.45610    0.95656    0.65790    1.000
    N6       N        0.83520    0.95485    0.65610    1.000
    N7       N        0.45610    0.04344    0.84210    1.000
    N8       N        0.83520    0.04515    0.84390    1.000
    O1       O        0.64410    0.52950    0.40170    1.000
    O2       O        0.64420    0.55998    0.27599    1.000
    O3       O        0.67090    0.90476    0.50790    1.000
    O4       O        0.64200    0.87120    0.63000    1.000
    O5       O        0.64410    0.47050    0.09830    1.000
    O6       O        0.64420    0.44002    0.22401    1.000
    O7       O        0.67090    0.09524    0.99210    1.000
    O8       O        0.64200    0.12880    0.87000    1.000
    O9       O        0.64410    0.02950    0.59830    1.000
    O10      O        0.64420    0.05998    0.72401    1.000
    O11      O        0.67090    0.40476    0.49210    1.000
    O12      O        0.64200    0.37120    0.37000    1.000
    O13      O        0.64410    0.97050    0.90170    1.000
    O14      O        0.64420    0.94002    0.77599    1.000
    O15      O        0.67090    0.59524    0.00790    1.000
    O16      O        0.64200    0.62880    0.13000    1.000
    Fe5      Fe       0.35544    0.04572    0.34645    1.000
    Fe6      Fe       0.35544    0.95428    0.15355    1.000
    Fe7      Fe       0.35544    0.54572    0.65355    1.000
    Fe8      Fe       0.35544    0.45428    0.84645    1.000
    H57      H        0.56270    0.98640    0.43080    1.000
    H58      H        0.76500    0.98590    0.43170    1.000
    H59      H        0.76630    0.10060    0.25480    1.000
    H60      H        0.56510    0.10080    0.25390    1.000
    H61      H        0.94280    0.97610    0.41110    1.000
    H62      H        0.14420    0.97590    0.40960    1.000
    H63      H        0.14460    0.11390    0.27610    1.000
    H64      H        0.94280    0.11500    0.27910    1.000
    H65      H        0.35260    0.88620    0.50540    1.000
    H66      H        0.36110    0.84490    0.26860    1.000
    H67      H        0.35580    0.75300    0.30160    1.000
    H68      H        0.34450    0.81540    0.60910    1.000
    H69      H        0.34200    0.72410    0.64460    1.000
    H70      H        0.34730    0.68230    0.40690    1.000
    H71      H        0.56270    0.01360    0.06920    1.000
    H72      H        0.76500    0.01410    0.06830    1.000
    H73      H        0.76630    0.89940    0.24520    1.000
    H74      H        0.56510    0.89920    0.24610    1.000
    H75      H        0.94280    0.02390    0.08890    1.000
    H76      H        0.14420    0.02410    0.09040    1.000
    H77      H        0.14460    0.88610    0.22390    1.000
    H78      H        0.94280    0.88500    0.22090    1.000
    H79      H        0.35260    0.11380    0.99460    1.000
    H80      H        0.36110    0.15510    0.23140    1.000
    H81      H        0.35580    0.24700    0.19840    1.000
    H82      H        0.34450    0.18460    0.89090    1.000
    H83      H        0.34200    0.27590    0.85540    1.000
    H84      H        0.34730    0.31770    0.09310    1.000
    H85      H        0.56270    0.48640    0.56920    1.000
    H86      H        0.76500    0.48590    0.56830    1.000
    H87      H        0.76630    0.60060    0.74520    1.000
    H88      H        0.56510    0.60080    0.74610    1.000
    H89      H        0.94280    0.47610    0.58890    1.000
    H90      H        0.14420    0.47590    0.59040    1.000
    H91      H        0.14460    0.61390    0.72390    1.000
    H92      H        0.94280    0.61500    0.72090    1.000
    H93      H        0.35260    0.38620    0.49460    1.000
    H94      H        0.36110    0.34490    0.73140    1.000
    H95      H        0.35580    0.25300    0.69840    1.000
    H96      H        0.34450    0.31540    0.39090    1.000
    H97      H        0.34200    0.22410    0.35540    1.000
    H98      H        0.34730    0.18230    0.59310    1.000
    H99      H        0.56270    0.51360    0.93080    1.000
    H100     H        0.76500    0.51410    0.93170    1.000
    H101     H        0.76630    0.39940    0.75480    1.000
    H102     H        0.56510    0.39920    0.75390    1.000
    H103     H        0.94280    0.52390    0.91110    1.000
    H104     H        0.14420    0.52410    0.90960    1.000
    H105     H        0.14460    0.38610    0.77610    1.000
    H106     H        0.94280    0.38500    0.77910    1.000
    H107     H        0.35260    0.61380    0.00540    1.000
    H108     H        0.36110    0.65510    0.76860    1.000
    H109     H        0.35580    0.74700    0.80160    1.000
    H110     H        0.34450    0.68460    0.10910    1.000
    H111     H        0.34200    0.77590    0.14460    1.000
    H112     H        0.34730    0.81770    0.90690    1.000
    C89      C        0.60380    0.00920    0.39540    1.000
    C90      C        0.72510    0.00880    0.39590    1.000
    C91      C        0.78650    0.04290    0.34280    1.000
    C92      C        0.72560    0.07760    0.28990    1.000
    C93      C        0.60510    0.07780    0.28940    1.000
    C94      C        0.92180    0.04560    0.34460    1.000
    C95      C        0.98300    0.00380    0.38420    1.000
    C96      C        0.10370    0.00380    0.38340    1.000
    C97      C        0.10420    0.08650    0.30380    1.000
    C98      C        0.98310    0.08690    0.30500    1.000
    C99      C        0.35620    0.93180    0.35250    1.000
    C100     C        0.35310    0.85950    0.46480    1.000
    C101     C        0.35710    0.87440    0.38280    1.000
    C102     C        0.35820    0.83450    0.32340    1.000
    C103     C        0.35500    0.77940    0.34260    1.000
    C104     C        0.35070    0.76480    0.42450    1.000
    C105     C        0.34980    0.80460    0.48620    1.000
    C106     C        0.34580    0.78880    0.56830    1.000
    C107     C        0.34370    0.73420    0.58950    1.000
    C108     C        0.34410    0.69400    0.52890    1.000
    C109     C        0.34730    0.70910    0.44730    1.000
    C110     C        0.34710    0.63200    0.55220    1.000
    C111     C        0.60380    0.99080    0.10460    1.000
    C112     C        0.72510    0.99120    0.10410    1.000
    C113     C        0.78650    0.95710    0.15720    1.000
    C114     C        0.72560    0.92240    0.21010    1.000
    C115     C        0.60510    0.92220    0.21060    1.000
    C116     C        0.92180    0.95440    0.15540    1.000
    C117     C        0.98300    0.99620    0.11580    1.000
    C118     C        0.10370    0.99620    0.11660    1.000
    C119     C        0.10420    0.91350    0.19620    1.000
    C120     C        0.98310    0.91310    0.19500    1.000
    C121     C        0.35620    0.06820    0.14750    1.000
    C122     C        0.35310    0.14050    0.03520    1.000
    C123     C        0.35710    0.12560    0.11720    1.000
    C124     C        0.35820    0.16550    0.17660    1.000
    C125     C        0.35500    0.22060    0.15740    1.000
    C126     C        0.35070    0.23520    0.07550    1.000
    C127     C        0.34980    0.19540    0.01380    1.000
    C128     C        0.34580    0.21120    0.93170    1.000
    C129     C        0.34370    0.26580    0.91050    1.000
    C130     C        0.34410    0.30600    0.97110    1.000
    C131     C        0.34730    0.29090    0.05270    1.000
    C132     C        0.34710    0.36800    0.94780    1.000
    C133     C        0.60380    0.50920    0.60460    1.000
    C134     C        0.72510    0.50880    0.60410    1.000
    C135     C        0.78650    0.54290    0.65720    1.000
    C136     C        0.72560    0.57760    0.71010    1.000
    C137     C        0.60510    0.57780    0.71060    1.000
    C138     C        0.92180    0.54560    0.65540    1.000
    C139     C        0.98300    0.50380    0.61580    1.000
    C140     C        0.10370    0.50380    0.61660    1.000
    C141     C        0.10420    0.58650    0.69620    1.000
    C142     C        0.98310    0.58690    0.69500    1.000
    C143     C        0.35620    0.43180    0.64750    1.000
    C144     C        0.35310    0.35950    0.53520    1.000
    C145     C        0.35710    0.37440    0.61720    1.000
    C146     C        0.35820    0.33450    0.67660    1.000
    C147     C        0.35500    0.27940    0.65740    1.000
    C148     C        0.35070    0.26480    0.57550    1.000
    C149     C        0.34980    0.30460    0.51380    1.000
    C150     C        0.34580    0.28880    0.43170    1.000
    C151     C        0.34370    0.23420    0.41050    1.000
    C152     C        0.34410    0.19400    0.47110    1.000
    C153     C        0.34730    0.20910    0.55270    1.000
    C154     C        0.34710    0.13200    0.44780    1.000
    C155     C        0.60380    0.49080    0.89540    1.000
    C156     C        0.72510    0.49120    0.89590    1.000
    C157     C        0.78650    0.45710    0.84280    1.000
    C158     C        0.72560    0.42240    0.78990    1.000
    C159     C        0.60510    0.42220    0.78940    1.000
    C160     C        0.92180    0.45440    0.84460    1.000
    C161     C        0.98300    0.49620    0.88420    1.000
    C162     C        0.10370    0.49620    0.88340    1.000
    C163     C        0.10420    0.41350    0.80380    1.000
    C164     C        0.98310    0.41310    0.80500    1.000
    C165     C        0.35620    0.56820    0.85250    1.000
    C166     C        0.35310    0.64050    0.96480    1.000
    C167     C        0.35710    0.62560    0.88280    1.000
    C168     C        0.35820    0.66550    0.82340    1.000
    C169     C        0.35500    0.72060    0.84260    1.000
    C170     C        0.35070    0.73520    0.92450    1.000
    C171     C        0.34980    0.69540    0.98620    1.000
    C172     C        0.34580    0.71120    0.06830    1.000
    C173     C        0.34370    0.76580    0.08950    1.000
    C174     C        0.34410    0.80600    0.02890    1.000
    C175     C        0.34730    0.79090    0.94730    1.000
    C176     C        0.34710    0.86800    0.05220    1.000
    N9       N        0.54390    0.04344    0.34210    1.000
    N10      N        0.16480    0.04515    0.34390    1.000
    N11      N        0.54390    0.95656    0.15790    1.000
    N12      N        0.16480    0.95485    0.15610    1.000
    N13      N        0.54390    0.54344    0.65790    1.000
    N14      N        0.16480    0.54515    0.65610    1.000
    N15      N        0.54390    0.45656    0.84210    1.000
    N16      N        0.16480    0.45485    0.84390    1.000
    O17      O        0.35590    0.97050    0.40170    1.000
    O18      O        0.35580    0.94002    0.27599    1.000
    O19      O        0.32910    0.59524    0.50790    1.000
    O20      O        0.35800    0.62880    0.63000    1.000
    O21      O        0.35590    0.02950    0.09830    1.000
    O22      O        0.35580    0.05998    0.22401    1.000
    O23      O        0.32910    0.40476    0.99210    1.000
    O24      O        0.35800    0.37120    0.87000    1.000
    O25      O        0.35590    0.47050    0.59830    1.000
    O26      O        0.35580    0.44002    0.72401    1.000
    O27      O        0.32910    0.09524    0.49210    1.000
    O28      O        0.35800    0.12880    0.37000    1.000
    O29      O        0.35590    0.52950    0.90170    1.000
    O30      O        0.35580    0.55998    0.77599    1.000
    O31      O        0.32910    0.90476    0.00790    1.000
    O32      O        0.35800    0.87120    0.13000    1.000
