# CIF file generated by openbabel 3.1.0, see https://openbabel.org
data_I
_chemical_name_common 'image0'
_cell_length_a 23.5634
_cell_length_b 15.694
_cell_length_c 16.0403
_cell_angle_alpha 90
_cell_angle_beta 124.083
_cell_angle_gamma 90
_space_group_name_H-M_alt 'P 1'
_space_group_name_Hall 'P 1'
loop_
    _symmetry_equiv_pos_as_xyz
    x,y,z
loop_
    _atom_site_label
    _atom_site_type_symbol
    _atom_site_fract_x
    _atom_site_fract_y
    _atom_site_fract_z
    _atom_site_occupancy
    Ho1      Ho       0.81081    0.32768    0.62435    1.000
    C1       C        0.13300    0.96030    0.32730    1.000
    C2       C        0.14450    0.04230    0.36460    1.000
    H1       H        0.18100    0.05340    0.43230    1.000
    C3       C        0.10280    0.10850    0.30350    1.000
    C4       C        0.04850    0.09300    0.20430    1.000
    C5       C        0.03550    0.01000    0.16900    1.000
    H2       H        0.99730    0.99820    0.10270    1.000
    C6       C        0.07770    0.94380    0.22930    1.000
    H3       H        0.06890    0.88720    0.20380    1.000
    C7       C        0.02000    0.19030    0.07500    1.000
    C8       C        0.08560    0.18960    0.09620    1.000
    H4       H        0.12230    0.16490    0.15690    1.000
    C9       C        0.09720    0.22530    0.02850    1.000
    C10      C        0.04300    0.25910    0.93780    1.000
    H5       H        0.05060    0.28090    0.88960    1.000
    C11      C        0.97750    0.26080    0.91860    1.000
    C12      C        0.96580    0.22670    0.98800    1.000
    H6       H        0.92140    0.22850    0.97570    1.000
    C13      C        0.18080    0.88810    0.39180    1.000
    C14      C        0.16900    0.22680    0.05420    1.000
    C15      C        0.91830    0.29580    0.82020    1.000
    N1       N        0.11840    0.19360    0.34660    1.000
    O1       O        0.17360    0.81970    0.34630    1.000
    O2       O        0.22316    0.90310    0.48360    1.000
    O3       O        0.15340    0.20010    0.43910    1.000
    O4       O        0.09630    0.25510    0.29040    1.000
    O5       O        0.21494    0.18890    0.13240    1.000
    O6       O        0.18153    0.26650    0.99820    1.000
    O7       O        0.92920    0.32010    0.75500    1.000
    O8       O        0.86015    0.29830    0.80440    1.000
    O9       O        0.00440    0.15570    0.14040    1.000
    Ho2      Ho       0.31081    0.82768    0.62435    1.000
    C16      C        0.63300    0.46030    0.32730    1.000
    C17      C        0.64450    0.54230    0.36460    1.000
    H7       H        0.68100    0.55340    0.43230    1.000
    C18      C        0.60280    0.60850    0.30350    1.000
    C19      C        0.54850    0.59300    0.20430    1.000
    C20      C        0.53550    0.51000    0.16900    1.000
    H8       H        0.49730    0.49820    0.10270    1.000
    C21      C        0.57770    0.44380    0.22930    1.000
    H9       H        0.56890    0.38720    0.20380    1.000
    C22      C        0.52000    0.69030    0.07500    1.000
    C23      C        0.58560    0.68960    0.09620    1.000
    H10      H        0.62230    0.66490    0.15690    1.000
    C24      C        0.59720    0.72530    0.02850    1.000
    C25      C        0.54300    0.75910    0.93780    1.000
    H11      H        0.55060    0.78090    0.88960    1.000
    C26      C        0.47750    0.76080    0.91860    1.000
    C27      C        0.46580    0.72670    0.98800    1.000
    H12      H        0.42140    0.72850    0.97570    1.000
    C28      C        0.68080    0.38810    0.39180    1.000
    C29      C        0.66900    0.72680    0.05420    1.000
    C30      C        0.41830    0.79580    0.82020    1.000
    N2       N        0.61840    0.69360    0.34660    1.000
    O10      O        0.67360    0.31970    0.34630    1.000
    O11      O        0.72316    0.40310    0.48360    1.000
    O12      O        0.65340    0.70010    0.43910    1.000
    O13      O        0.59630    0.75510    0.29040    1.000
    O14      O        0.71494    0.68890    0.13240    1.000
    O15      O        0.68153    0.76650    0.99820    1.000
    O16      O        0.42920    0.82010    0.75500    1.000
    O17      O        0.36015    0.79830    0.80440    1.000
    O18      O        0.50440    0.65570    0.14040    1.000
    Ho3      Ho       0.18919    0.32768    0.87565    1.000
    C31      C        0.86700    0.96030    0.17270    1.000
    C32      C        0.85550    0.04230    0.13540    1.000
    H13      H        0.81900    0.05340    0.06770    1.000
    C33      C        0.89720    0.10850    0.19650    1.000
    C34      C        0.95150    0.09300    0.29570    1.000
    C35      C        0.96450    0.01000    0.33100    1.000
    H14      H        0.00270    0.99820    0.39730    1.000
    C36      C        0.92230    0.94380    0.27070    1.000
    H15      H        0.93110    0.88720    0.29620    1.000
    C37      C        0.98000    0.19030    0.42500    1.000
    C38      C        0.91440    0.18960    0.40380    1.000
    H16      H        0.87770    0.16490    0.34310    1.000
    C39      C        0.90280    0.22530    0.47150    1.000
    C40      C        0.95700    0.25910    0.56220    1.000
    H17      H        0.94940    0.28090    0.61040    1.000
    C41      C        0.02250    0.26080    0.58140    1.000
    C42      C        0.03420    0.22670    0.51200    1.000
    H18      H        0.07860    0.22850    0.52430    1.000
    C43      C        0.81920    0.88810    0.10820    1.000
    C44      C        0.83100    0.22680    0.44580    1.000
    C45      C        0.08170    0.29580    0.67980    1.000
    N3       N        0.88160    0.19360    0.15340    1.000
    O19      O        0.82640    0.81970    0.15370    1.000
    O20      O        0.77684    0.90310    0.01640    1.000
    O21      O        0.84660    0.20010    0.06090    1.000
    O22      O        0.90370    0.25510    0.20960    1.000
    O23      O        0.78506    0.18890    0.36760    1.000
    O24      O        0.81847    0.26650    0.50180    1.000
    O25      O        0.07080    0.32010    0.74500    1.000
    O26      O        0.13985    0.29830    0.69560    1.000
    O27      O        0.99560    0.15570    0.35960    1.000
    Ho4      Ho       0.68919    0.82768    0.87565    1.000
    C46      C        0.36700    0.46030    0.17270    1.000
    C47      C        0.35550    0.54230    0.13540    1.000
    H19      H        0.31900    0.55340    0.06770    1.000
    C48      C        0.39720    0.60850    0.19650    1.000
    C49      C        0.45150    0.59300    0.29570    1.000
    C50      C        0.46450    0.51000    0.33100    1.000
    H20      H        0.50270    0.49820    0.39730    1.000
    C51      C        0.42230    0.44380    0.27070    1.000
    H21      H        0.43110    0.38720    0.29620    1.000
    C52      C        0.48000    0.69030    0.42500    1.000
    C53      C        0.41440    0.68960    0.40380    1.000
    H22      H        0.37770    0.66490    0.34310    1.000
    C54      C        0.40280    0.72530    0.47150    1.000
    C55      C        0.45700    0.75910    0.56220    1.000
    H23      H        0.44940    0.78090    0.61040    1.000
    C56      C        0.52250    0.76080    0.58140    1.000
    C57      C        0.53420    0.72670    0.51200    1.000
    H24      H        0.57860    0.72850    0.52430    1.000
    C58      C        0.31920    0.38810    0.10820    1.000
    C59      C        0.33100    0.72680    0.44580    1.000
    C60      C        0.58170    0.79580    0.67980    1.000
    N4       N        0.38160    0.69360    0.15340    1.000
    O28      O        0.32640    0.31970    0.15370    1.000
    O29      O        0.27684    0.40310    0.01640    1.000
    O30      O        0.34660    0.70010    0.06090    1.000
    O31      O        0.40370    0.75510    0.20960    1.000
    O32      O        0.28506    0.68890    0.36760    1.000
    O33      O        0.31847    0.76650    0.50180    1.000
    O34      O        0.57080    0.82010    0.74500    1.000
    O35      O        0.63985    0.79830    0.69560    1.000
    O36      O        0.49560    0.65570    0.35960    1.000
    Ho5      Ho       0.18919    0.67232    0.37565    1.000
    C61      C        0.86700    0.03970    0.67270    1.000
    C62      C        0.85550    0.95770    0.63540    1.000
    H25      H        0.81900    0.94660    0.56770    1.000
    C63      C        0.89720    0.89150    0.69650    1.000
    C64      C        0.95150    0.90700    0.79570    1.000
    C65      C        0.96450    0.99000    0.83100    1.000
    H26      H        0.00270    0.00180    0.89730    1.000
    C66      C        0.92230    0.05620    0.77070    1.000
    H27      H        0.93110    0.11280    0.79620    1.000
    C67      C        0.98000    0.80970    0.92500    1.000
    C68      C        0.91440    0.81040    0.90380    1.000
    H28      H        0.87770    0.83510    0.84310    1.000
    C69      C        0.90280    0.77470    0.97150    1.000
    C70      C        0.95700    0.74090    0.06220    1.000
    H29      H        0.94940    0.71910    0.11040    1.000
    C71      C        0.02250    0.73920    0.08140    1.000
    C72      C        0.03420    0.77330    0.01200    1.000
    H30      H        0.07860    0.77150    0.02430    1.000
    C73      C        0.81920    0.11190    0.60820    1.000
    C74      C        0.83100    0.77320    0.94580    1.000
    C75      C        0.08170    0.70420    0.17980    1.000
    N5       N        0.88160    0.80640    0.65340    1.000
    O37      O        0.82640    0.18030    0.65370    1.000
    O38      O        0.77684    0.09690    0.51640    1.000
    O39      O        0.84660    0.79990    0.56090    1.000
    O40      O        0.90370    0.74490    0.70960    1.000
    O41      O        0.78506    0.81110    0.86760    1.000
    O42      O        0.81847    0.73350    0.00180    1.000
    O43      O        0.07080    0.67990    0.24500    1.000
    O44      O        0.13985    0.70170    0.19560    1.000
    O45      O        0.99560    0.84430    0.85960    1.000
    Ho6      Ho       0.68919    0.17232    0.37565    1.000
    C76      C        0.36700    0.53970    0.67270    1.000
    C77      C        0.35550    0.45770    0.63540    1.000
    H31      H        0.31900    0.44660    0.56770    1.000
    C78      C        0.39720    0.39150    0.69650    1.000
    C79      C        0.45150    0.40700    0.79570    1.000
    C80      C        0.46450    0.49000    0.83100    1.000
    H32      H        0.50270    0.50180    0.89730    1.000
    C81      C        0.42230    0.55620    0.77070    1.000
    H33      H        0.43110    0.61280    0.79620    1.000
    C82      C        0.48000    0.30970    0.92500    1.000
    C83      C        0.41440    0.31040    0.90380    1.000
    H34      H        0.37770    0.33510    0.84310    1.000
    C84      C        0.40280    0.27470    0.97150    1.000
    C85      C        0.45700    0.24090    0.06220    1.000
    H35      H        0.44940    0.21910    0.11040    1.000
    C86      C        0.52250    0.23920    0.08140    1.000
    C87      C        0.53420    0.27330    0.01200    1.000
    H36      H        0.57860    0.27150    0.02430    1.000
    C88      C        0.31920    0.61190    0.60820    1.000
    C89      C        0.33100    0.27320    0.94580    1.000
    C90      C        0.58170    0.20420    0.17980    1.000
    N6       N        0.38160    0.30640    0.65340    1.000
    O46      O        0.32640    0.68030    0.65370    1.000
    O47      O        0.27684    0.59690    0.51640    1.000
    O48      O        0.34660    0.29990    0.56090    1.000
    O49      O        0.40370    0.24490    0.70960    1.000
    O50      O        0.28506    0.31110    0.86760    1.000
    O51      O        0.31847    0.23350    0.00180    1.000
    O52      O        0.57080    0.17990    0.24500    1.000
    O53      O        0.63985    0.20170    0.19560    1.000
    O54      O        0.49560    0.34430    0.85960    1.000
    Ho7      Ho       0.81081    0.67232    0.12435    1.000
    C91      C        0.13300    0.03970    0.82730    1.000
    C92      C        0.14450    0.95770    0.86460    1.000
    H37      H        0.18100    0.94660    0.93230    1.000
    C93      C        0.10280    0.89150    0.80350    1.000
    C94      C        0.04850    0.90700    0.70430    1.000
    C95      C        0.03550    0.99000    0.66900    1.000
    H38      H        0.99730    0.00180    0.60270    1.000
    C96      C        0.07770    0.05620    0.72930    1.000
    H39      H        0.06890    0.11280    0.70380    1.000
    C97      C        0.02000    0.80970    0.57500    1.000
    C98      C        0.08560    0.81040    0.59620    1.000
    H40      H        0.12230    0.83510    0.65690    1.000
    C99      C        0.09720    0.77470    0.52850    1.000
    C100     C        0.04300    0.74090    0.43780    1.000
    H41      H        0.05060    0.71910    0.38960    1.000
    C101     C        0.97750    0.73920    0.41860    1.000
    C102     C        0.96580    0.77330    0.48800    1.000
    H42      H        0.92140    0.77150    0.47570    1.000
    C103     C        0.18080    0.11190    0.89180    1.000
    C104     C        0.16900    0.77320    0.55420    1.000
    C105     C        0.91830    0.70420    0.32020    1.000
    N7       N        0.11840    0.80640    0.84660    1.000
    O55      O        0.17360    0.18030    0.84630    1.000
    O56      O        0.22316    0.09690    0.98360    1.000
    O57      O        0.15340    0.79990    0.93910    1.000
    O58      O        0.09630    0.74490    0.79040    1.000
    O59      O        0.21494    0.81110    0.63240    1.000
    O60      O        0.18153    0.73350    0.49820    1.000
    O61      O        0.92920    0.67990    0.25500    1.000
    O62      O        0.86015    0.70170    0.30440    1.000
    O63      O        0.00440    0.84430    0.64040    1.000
    Ho8      Ho       0.31081    0.17232    0.12435    1.000
    C106     C        0.63300    0.53970    0.82730    1.000
    C107     C        0.64450    0.45770    0.86460    1.000
    H43      H        0.68100    0.44660    0.93230    1.000
    C108     C        0.60280    0.39150    0.80350    1.000
    C109     C        0.54850    0.40700    0.70430    1.000
    C110     C        0.53550    0.49000    0.66900    1.000
    H44      H        0.49730    0.50180    0.60270    1.000
    C111     C        0.57770    0.55620    0.72930    1.000
    H45      H        0.56890    0.61280    0.70380    1.000
    C112     C        0.52000    0.30970    0.57500    1.000
    C113     C        0.58560    0.31040    0.59620    1.000
    H46      H        0.62230    0.33510    0.65690    1.000
    C114     C        0.59720    0.27470    0.52850    1.000
    C115     C        0.54300    0.24090    0.43780    1.000
    H47      H        0.55060    0.21910    0.38960    1.000
    C116     C        0.47750    0.23920    0.41860    1.000
    C117     C        0.46580    0.27330    0.48800    1.000
    H48      H        0.42140    0.27150    0.47570    1.000
    C118     C        0.68080    0.61190    0.89180    1.000
    C119     C        0.66900    0.27320    0.55420    1.000
    C120     C        0.41830    0.20420    0.32020    1.000
    N8       N        0.61840    0.30640    0.84660    1.000
    O64      O        0.67360    0.68030    0.84630    1.000
    O65      O        0.72316    0.59690    0.98360    1.000
    O66      O        0.65340    0.29990    0.93910    1.000
    O67      O        0.59630    0.24490    0.79040    1.000
    O68      O        0.71494    0.31110    0.63240    1.000
    O69      O        0.68153    0.23350    0.49820    1.000
    O70      O        0.42920    0.17990    0.25500    1.000
    O71      O        0.36015    0.20170    0.30440    1.000
    O72      O        0.50440    0.34430    0.64040    1.000
