data_functionalizedCrystal
_audit_creation_method	'EQeq! by Chris Wilmer'
_symmetry_space_group_name_H-M	'P1'
_symmetry_Int_Tables_number	1
_symmetry_cell_setting	triclinic
loop_
_symmetry_equiv_pos_as_xyz
  x,y,z
_cell_length_a	16.6727
_cell_length_b	17.5916
_cell_length_c	18.734
_cell_angle_alpha	77.8267
_cell_angle_beta	63.5777
_cell_angle_gamma	61.7135
loop_
_atom_site_label
_atom_site_type_symbol
_atom_site_fract_x
_atom_site_fract_y
_atom_site_fract_z
_atom_site_charge
Mof_Cu	Cu	0.0008	0.93688	0.0522	0.904
Mof_Cu	Cu	0.947	0.56312	0.0522	0.904
Mof_Cu	Cu	0.56232	0.93688	0.4478	0.904
Mof_Cu	Cu	0.98988	0.56312	0.4478	0.905
Mof_Cu	Cu	0.9992	0.06312	0.9478	0.904
Mof_Cu	Cu	0.053	0.43688	0.9478	0.904
Mof_Cu	Cu	0.43768	0.06312	0.5522	0.903
Mof_Cu	Cu	0.01012	0.43688	0.5522	0.904
Mof_H 	H 	0.0911	0.0034	0.2054	-0.003
Mof_H 	H 	0.1408	0.058	0.2702	0.118
Mof_H 	H 	0.1031	0.266	0.128	0.126
Mof_H 	H 	0.0571	0.21	0.061	0
Mof_H 	H 	0.3202	0.954	0.7864	0.007
Mof_H 	H 	0.4907	0.882	0.7314	0.121
Mof_H 	H 	0.4825	0.7258	0.9218	0.114
Mof_H 	H 	0.3122	0.7946	0.9748	0.002
Mof_H 	H 	0.7035	0.4966	0.2054	-0.003
Mof_H 	H 	0.589	0.442	0.2702	0.118
Mof_H 	H 	0.7689	0.234	0.128	0.126
Mof_H 	H 	0.8819	0.29	0.061	0
Mof_H 	H 	0.8934	0.546	0.7864	0.007
Mof_H 	H 	0.7779	0.618	0.7314	0.121
Mof_H 	H 	0.5957	0.7742	0.9218	0.114
Mof_H 	H 	0.713	0.7054	0.9748	0.002
Mof_H 	H 	0.4055	0.0034	0.2946	-0.003
Mof_H 	H 	0.3012	0.058	0.2298	0.118
Mof_H 	H 	0.1309	0.266	0.372	0.126
Mof_H 	H 	0.2329	0.21	0.439	-0
Mof_H 	H 	0.2258	0.954	0.7136	0.007
Mof_H 	H 	0.1273	0.882	0.7686	0.121
Mof_H 	H 	0.2917	0.7258	0.5782	0.114
Mof_H 	H 	0.3932	0.7946	0.5252	0.002
Mof_H 	H 	0.2999	0.4966	0.2946	-0.003
Mof_H 	H 	0.469	0.442	0.2298	0.118
Mof_H 	H 	0.4971	0.234	0.372	0.126
Mof_H 	H 	0.3281	0.29	0.439	0
Mof_H 	H 	0.0606	0.546	0.7136	0.006
Mof_H 	H 	0.1041	0.618	0.7686	0.121
Mof_H 	H 	0.1301	0.7742	0.5782	0.114
Mof_H 	H 	0.0816	0.7054	0.5252	0.002
Mof_H 	H 	0.9089	0.9966	0.7946	-0.003
Mof_H 	H 	0.8592	0.942	0.7298	0.118
Mof_H 	H 	0.8969	0.734	0.872	0.126
Mof_H 	H 	0.9429	0.79	0.939	0
Mof_H 	H 	0.6798	0.046	0.2136	0.007
Mof_H 	H 	0.5093	0.118	0.2686	0.121
Mof_H 	H 	0.5175	0.2742	0.0782	0.114
Mof_H 	H 	0.6878	0.2054	0.0252	0.002
Mof_H 	H 	0.2965	0.5034	0.7946	-0.003
Mof_H 	H 	0.411	0.558	0.7298	0.118
Mof_H 	H 	0.2311	0.766	0.872	0.126
Mof_H 	H 	0.1181	0.71	0.939	0
Mof_H 	H 	0.1066	0.454	0.2136	0.007
Mof_H 	H 	0.2221	0.382	0.2686	0.121
Mof_H 	H 	0.4043	0.2258	0.0782	0.114
Mof_H 	H 	0.287	0.2946	0.0252	0.002
Mof_H 	H 	0.5945	0.9966	0.7054	-0.003
Mof_H 	H 	0.6988	0.942	0.7702	0.118
Mof_H 	H 	0.8691	0.734	0.628	0.126
Mof_H 	H 	0.7671	0.79	0.561	-0
Mof_H 	H 	0.7742	0.046	0.2864	0.007
Mof_H 	H 	0.8727	0.118	0.2314	0.121
Mof_H 	H 	0.7083	0.2742	0.4218	0.114
Mof_H 	H 	0.6068	0.2054	0.4748	0.002
Mof_H 	H 	0.7001	0.5034	0.7054	-0.003
Mof_H 	H 	0.531	0.558	0.7702	0.118
Mof_H 	H 	0.5029	0.766	0.628	0.126
Mof_H 	H 	0.6719	0.71	0.561	0
Mof_H 	H 	0.9394	0.454	0.2864	0.006
Mof_H 	H 	0.8959	0.382	0.2314	0.121
Mof_H 	H 	0.8699	0.2258	0.4218	0.114
Mof_H 	H 	0.9184	0.2946	0.4748	0.002
Mof_H 	H 	0.1181	0.2638	0.25	0.145
Mof_H 	H 	0.6319	0.2362	0.25	0.145
Mof_H 	H 	0.8819	0.7362	0.75	0.145
Mof_H 	H 	0.3681	0.7638	0.75	0.145
Mof_H 	H 	0.6343	0.75	0.7314	0.144
Mof_H 	H 	0.1157	0.75	0.7686	0.144
Mof_H 	H 	0.3657	0.25	0.2686	0.144
Mof_H 	H 	0.8843	0.25	0.2314	0.144
Mof_C 	C 	0.06996	0.09984	0.12504	-0.19
Mof_C 	C 	0.09436	0.05604	0.18924	0.137
Mof_C 	C 	0.12277	0.08912	0.22874	-0.241
Mof_C 	C 	0.12519	0.16914	0.20728	0.22
Mof_C 	C 	0.1008	0.21306	0.14354	-0.246
Mof_C 	C 	0.07346	0.17946	0.10322	0.136
Mof_C 	C 	0.03909	0.06362	0.0824	0.389
Mof_C 	C 	0.18658	0.92604	0.9228	0.374
Mof_C 	C 	0.29796	0.88166	0.88662	-0.176
Mof_C 	C 	0.35276	0.90756	0.81332	0.121
Mof_C 	C 	0.45504	0.86442	0.7805	-0.232
Mof_C 	C 	0.50621	0.79492	0.81946	0.211
Mof_C 	C 	0.45021	0.77076	0.89382	-0.228
Mof_C 	C 	0.3481	0.81274	0.92596	0.123
Mof_C 	C 	0.805	0.40016	0.12504	-0.19
Mof_C 	C 	0.7164	0.44396	0.18924	0.136
Mof_C 	C 	0.64849	0.41088	0.22874	-0.241
Mof_C 	C 	0.66753	0.33086	0.20728	0.22
Mof_C 	C 	0.75566	0.28694	0.14354	-0.246
Mof_C 	C 	0.82332	0.32054	0.10322	0.136
Mof_C 	C 	0.87851	0.43638	0.0824	0.386
Mof_C 	C 	0.89062	0.57396	0.9228	0.374
Mof_C 	C 	0.81542	0.61834	0.88662	-0.176
Mof_C 	C 	0.83392	0.59244	0.81332	0.121
Mof_C 	C 	0.76446	0.63558	0.7805	-0.232
Mof_C 	C 	0.67433	0.70508	0.81946	0.211
Mof_C 	C 	0.65597	0.72924	0.89382	-0.228
Mof_C 	C 	0.72594	0.68726	0.92596	0.123
Mof_C 	C 	0.3302	0.09984	0.37496	-0.19
Mof_C 	C 	0.3496	0.05604	0.31076	0.136
Mof_C 	C 	0.28811	0.08912	0.27126	-0.241
Mof_C 	C 	0.20567	0.16914	0.29272	0.22
Mof_C 	C 	0.18614	0.21306	0.35646	-0.247
Mof_C 	C 	0.24708	0.17946	0.39678	0.136
Mof_C 	C 	0.39729	0.06362	0.4176	0.387
Mof_C 	C 	0.38738	0.92604	0.5772	0.374
Mof_C 	C 	0.32038	0.88166	0.61338	-0.177
Mof_C 	C 	0.23968	0.90756	0.68668	0.121
Mof_C 	C 	0.18054	0.86442	0.7195	-0.232
Mof_C 	C 	0.19887	0.79492	0.68054	0.211
Mof_C 	C 	0.27903	0.77076	0.60618	-0.229
Mof_C 	C 	0.33916	0.81274	0.57404	0.123
Mof_C 	C 	0.29484	0.40016	0.37496	-0.19
Mof_C 	C 	0.33964	0.44396	0.31076	0.136
Mof_C 	C 	0.44063	0.41088	0.27126	-0.241
Mof_C 	C 	0.50161	0.33086	0.29272	0.22
Mof_C 	C 	0.4574	0.28694	0.35646	-0.246
Mof_C 	C 	0.35614	0.32054	0.39678	0.136
Mof_C 	C 	0.18511	0.43638	0.4176	0.386
Mof_C 	C 	0.03542	0.57396	0.5772	0.374
Mof_C 	C 	0.06624	0.61834	0.61338	-0.176
Mof_C 	C 	0.07364	0.59244	0.68668	0.121
Mof_C 	C 	0.09996	0.63558	0.7195	-0.232
Mof_C 	C 	0.12059	0.70508	0.68054	0.211
Mof_C 	C 	0.11479	0.72924	0.60618	-0.228
Mof_C 	C 	0.0868	0.68726	0.57404	0.123
Mof_C 	C 	0.93004	0.90016	0.87496	-0.19
Mof_C 	C 	0.90564	0.94396	0.81076	0.137
Mof_C 	C 	0.87723	0.91088	0.77126	-0.241
Mof_C 	C 	0.87481	0.83086	0.79272	0.22
Mof_C 	C 	0.8992	0.78694	0.85646	-0.246
Mof_C 	C 	0.92654	0.82054	0.89678	0.136
Mof_C 	C 	0.96091	0.93638	0.9176	0.389
Mof_C 	C 	0.81342	0.07396	0.0772	0.374
Mof_C 	C 	0.70204	0.11834	0.11338	-0.176
Mof_C 	C 	0.64724	0.09244	0.18668	0.121
Mof_C 	C 	0.54496	0.13558	0.2195	-0.232
Mof_C 	C 	0.49379	0.20508	0.18054	0.211
Mof_C 	C 	0.54979	0.22924	0.10618	-0.228
Mof_C 	C 	0.6519	0.18726	0.07404	0.123
Mof_C 	C 	0.195	0.59984	0.87496	-0.19
Mof_C 	C 	0.2836	0.55604	0.81076	0.136
Mof_C 	C 	0.35151	0.58912	0.77126	-0.241
Mof_C 	C 	0.33247	0.66914	0.79272	0.22
Mof_C 	C 	0.24434	0.71306	0.85646	-0.246
Mof_C 	C 	0.17668	0.67946	0.89678	0.136
Mof_C 	C 	0.12149	0.56362	0.9176	0.386
Mof_C 	C 	0.10938	0.42604	0.0772	0.374
Mof_C 	C 	0.18458	0.38166	0.11338	-0.176
Mof_C 	C 	0.16608	0.40756	0.18668	0.121
Mof_C 	C 	0.23554	0.36442	0.2195	-0.232
Mof_C 	C 	0.32567	0.29492	0.18054	0.211
Mof_C 	C 	0.34403	0.27076	0.10618	-0.228
Mof_C 	C 	0.27406	0.31274	0.07404	0.123
Mof_C 	C 	0.6698	0.90016	0.62504	-0.19
Mof_C 	C 	0.6504	0.94396	0.68924	0.136
Mof_C 	C 	0.71189	0.91088	0.72874	-0.241
Mof_C 	C 	0.79433	0.83086	0.70728	0.22
Mof_C 	C 	0.81386	0.78694	0.64354	-0.247
Mof_C 	C 	0.75292	0.82054	0.60322	0.136
Mof_C 	C 	0.60271	0.93638	0.5824	0.387
Mof_C 	C 	0.61262	0.07396	0.4228	0.374
Mof_C 	C 	0.67962	0.11834	0.38662	-0.177
Mof_C 	C 	0.76032	0.09244	0.31332	0.121
Mof_C 	C 	0.81946	0.13558	0.2805	-0.232
Mof_C 	C 	0.80113	0.20508	0.31946	0.211
Mof_C 	C 	0.72097	0.22924	0.39382	-0.229
Mof_C 	C 	0.66084	0.18726	0.42596	0.123
Mof_C 	C 	0.70516	0.59984	0.62504	-0.19
Mof_C 	C 	0.66036	0.55604	0.68924	0.136
Mof_C 	C 	0.55937	0.58912	0.72874	-0.241
Mof_C 	C 	0.49839	0.66914	0.70728	0.22
Mof_C 	C 	0.5426	0.71306	0.64354	-0.246
Mof_C 	C 	0.64386	0.67946	0.60322	0.136
Mof_C 	C 	0.81489	0.56362	0.5824	0.386
Mof_C 	C 	0.96458	0.42604	0.4228	0.374
Mof_C 	C 	0.93376	0.38166	0.38662	-0.176
Mof_C 	C 	0.92636	0.40756	0.31332	0.121
Mof_C 	C 	0.90004	0.36442	0.2805	-0.232
Mof_C 	C 	0.87941	0.29492	0.31946	0.211
Mof_C 	C 	0.88521	0.27076	0.39382	-0.228
Mof_C 	C 	0.9132	0.31274	0.42596	0.123
Mof_N 	N 	0.14582	0.20836	0.25	-0.266
Mof_N 	N 	0.60418	0.29164	0.25	-0.266
Mof_N 	N 	0.85418	0.79164	0.75	-0.266
Mof_N 	N 	0.39582	0.70836	0.75	-0.266
Mof_N 	N 	0.60868	0.75	0.78264	-0.263
Mof_N 	N 	0.14132	0.75	0.71736	-0.263
Mof_N 	N 	0.39132	0.25	0.21736	-0.263
Mof_N 	N 	0.85868	0.25	0.28264	-0.263
Mof_O 	O 	0.14341	0.89026	0.98312	-0.418
Mof_O 	O 	0.02652	0.99644	0.11072	-0.418
Mof_O 	O 	0.0266	0.10282	0.02098	-0.421
Mof_O 	O 	0.14338	0.99558	0.89166	-0.406
Mof_O 	O 	0.87347	0.60974	0.98312	-0.419
Mof_O 	O 	0.86276	0.50356	0.11072	-0.416
Mof_O 	O 	0.95242	0.39718	0.02098	-0.421
Mof_O 	O 	0.96496	0.50442	0.89166	-0.406
Mof_O 	O 	0.46633	0.89026	0.51688	-0.419
Mof_O 	O 	0.47704	0.99644	0.38928	-0.417
Mof_O 	O 	0.37058	0.10282	0.47902	-0.422
Mof_O 	O 	0.36104	0.99558	0.60834	-0.407
Mof_O 	O 	0.01679	0.60974	0.51688	-0.419
Mof_O 	O 	0.13368	0.50356	0.38928	-0.416
Mof_O 	O 	0.1504	0.39718	0.47902	-0.421
Mof_O 	O 	0.03062	0.50442	0.60834	-0.407
Mof_O 	O 	0.85659	0.10974	0.01688	-0.418
Mof_O 	O 	0.97348	0.00356	0.88928	-0.418
Mof_O 	O 	0.9734	0.89718	0.97902	-0.421
Mof_O 	O 	0.85662	0.00442	0.10834	-0.406
Mof_O 	O 	0.12653	0.39026	0.01688	-0.419
Mof_O 	O 	0.13724	0.49644	0.88928	-0.416
Mof_O 	O 	0.04758	0.60282	0.97902	-0.421
Mof_O 	O 	0.03504	0.49558	0.10834	-0.406
Mof_O 	O 	0.53367	0.10974	0.48312	-0.419
Mof_O 	O 	0.52296	0.00356	0.61072	-0.417
Mof_O 	O 	0.62942	0.89718	0.52098	-0.422
Mof_O 	O 	0.63896	0.00442	0.39166	-0.407
Mof_O 	O 	0.98321	0.39026	0.48312	-0.419
Mof_O 	O 	0.86632	0.49644	0.61072	-0.416
Mof_O 	O 	0.8496	0.60282	0.52098	-0.421
Mof_O 	O 	0.96938	0.49558	0.39166	-0.407
_end
