data_functionalizedCrystal
_audit_creation_method	'EQeq! by Chris Wilmer'
_symmetry_space_group_name_H-M	'P1'
_symmetry_Int_Tables_number	1
_symmetry_cell_setting	triclinic
loop_
_symmetry_equiv_pos_as_xyz
  x,y,z
_cell_length_a	16.1461
_cell_length_b	16.1461
_cell_length_c	17.4126
_cell_angle_alpha	90
_cell_angle_beta	90
_cell_angle_gamma	90
loop_
_atom_site_label
_atom_site_type_symbol
_atom_site_fract_x
_atom_site_fract_y
_atom_site_fract_z
_atom_site_charge
Mof_Mn	Mn	0.23852	0.77729	0.21396	0.786
Mof_N 	N 	0.2238	0.7849	0.33995	-0.204
Mof_N 	N 	0.1187	0.70639	0.2068	-0.192
Mof_N 	N 	0.1707	0.89584	0.2047	-0.216
Mof_N 	N 	0.86046	0.6564	0.2753	-0.193
Mof_N 	N 	0.19397	0.15797	0.27015	-0.214
Mof_N 	N 	0.2645	0.7544	0.58899	-0.204
Mof_C 	C 	0.1501	0.9617	0.2198	0.185
Mof_C 	C 	0.1621	0.0975	0.2535	0.181
Mof_N 	N 	0.1763	0.7746	0.4746	-0.027
Mof_C 	C 	0.2045	0.7771	0.4048	0.052
Mof_C 	C 	0.2242	0.7634	0.5335	0.045
Mof_N 	N 	0.9932	0.62	0.2174	-0.191
Mof_C 	C 	0.0575	0.6686	0.2151	0.044
Mof_C 	C 	0.9248	0.6434	0.2503	0.041
Mof_N 	N 	0.1173	0.033	0.2339	-0.177
Mof_N 	N 	0.1917	0.8079	0.476	-0.012
Mof_C 	C 	0.2149	0.7954	0.4055	0.059
Mof_C 	C 	0.2809	0.7356	0.0334	0.058
Mof_N 	N 	0.1831	0.7352	0.4697	-0.098
Mof_C 	C 	0.207	0.7548	0.4008	0.024
Mof_C 	C 	0.2467	0.7296	0.0297	0.025
Mof_N 	N 	0.2262	0.8333	0.4748	-0.118
Mof_C 	C 	0.231	0.8079	0.4042	0.042
Mof_C 	C 	0.2882	0.756	0.0301	0.051
Mof_N 	N 	0.4846	0.8659	0.3057	0.044
Mof_C 	C 	0.0539	0.6741	0.2023	0.037
Mof_C 	C 	0.4225	0.8531	0.2598	0.056
Mof_N 	N 	0.5043	0.8834	0.2506	0.004
Mof_C 	C 	0.0638	0.6674	0.2318	0.056
Mof_C 	C 	0.4298	0.8559	0.2384	0.042
Mof_Mn	Mn	0.76148	0.22271	0.21396	0.787
Mof_N 	N 	0.7762	0.2151	0.33995	-0.203
Mof_N 	N 	0.8813	0.29361	0.2068	-0.191
Mof_N 	N 	0.8293	0.10416	0.2047	-0.215
Mof_N 	N 	0.13954	0.3436	0.2753	-0.192
Mof_N 	N 	0.80603	0.84203	0.27015	-0.213
Mof_N 	N 	0.7355	0.2456	0.58899	-0.203
Mof_C 	C 	0.8499	0.0383	0.2198	0.186
Mof_C 	C 	0.8379	0.9025	0.2535	0.182
Mof_N 	N 	0.8237	0.2254	0.4746	-0.026
Mof_C 	C 	0.7955	0.2229	0.4048	0.053
Mof_C 	C 	0.7758	0.2366	0.5335	0.046
Mof_N 	N 	0.0068	0.38	0.2174	-0.19
Mof_C 	C 	0.9425	0.3314	0.2151	0.045
Mof_C 	C 	0.0752	0.3566	0.2503	0.042
Mof_N 	N 	0.8827	0.967	0.2339	-0.176
Mof_N 	N 	0.8083	0.1921	0.476	-0.012
Mof_C 	C 	0.7851	0.2046	0.4055	0.059
Mof_C 	C 	0.7191	0.2644	0.0334	0.058
Mof_N 	N 	0.8169	0.2648	0.4697	-0.098
Mof_C 	C 	0.793	0.2452	0.4008	0.024
Mof_C 	C 	0.7533	0.2704	0.0297	0.025
Mof_N 	N 	0.7738	0.1667	0.4748	-0.118
Mof_C 	C 	0.769	0.1921	0.4042	0.042
Mof_C 	C 	0.7118	0.244	0.0301	0.051
Mof_N 	N 	0.5154	0.1341	0.3057	0.044
Mof_C 	C 	0.9461	0.3259	0.2023	0.037
Mof_C 	C 	0.5775	0.1469	0.2598	0.056
Mof_N 	N 	0.4957	0.1166	0.2506	0.004
Mof_C 	C 	0.9362	0.3326	0.2318	0.056
Mof_C 	C 	0.5702	0.1441	0.2384	0.042
Mof_Mn	Mn	0.77729	0.76148	0.78604	0.787
Mof_N 	N 	0.7849	0.7762	0.66005	-0.203
Mof_N 	N 	0.70639	0.8813	0.7932	-0.191
Mof_N 	N 	0.89584	0.8293	0.7953	-0.215
Mof_N 	N 	0.6564	0.13954	0.7247	-0.192
Mof_N 	N 	0.15797	0.80603	0.72985	-0.213
Mof_N 	N 	0.7544	0.7355	0.41101	-0.203
Mof_C 	C 	0.9617	0.8499	0.7802	0.186
Mof_C 	C 	0.0975	0.8379	0.7465	0.182
Mof_N 	N 	0.7746	0.8237	0.5254	-0.026
Mof_C 	C 	0.7771	0.7955	0.5952	0.053
Mof_C 	C 	0.7634	0.7758	0.4665	0.046
Mof_N 	N 	0.62	0.0068	0.7826	-0.19
Mof_C 	C 	0.6686	0.9425	0.7849	0.045
Mof_C 	C 	0.6434	0.0752	0.7497	0.042
Mof_N 	N 	0.033	0.8827	0.7661	-0.176
Mof_N 	N 	0.8079	0.8083	0.524	-0.012
Mof_C 	C 	0.7954	0.7851	0.5945	0.059
Mof_C 	C 	0.7356	0.7191	0.9666	0.058
Mof_N 	N 	0.7352	0.8169	0.5303	-0.098
Mof_C 	C 	0.7548	0.793	0.5992	0.024
Mof_C 	C 	0.7296	0.7533	0.9703	0.025
Mof_N 	N 	0.8333	0.7738	0.5252	-0.118
Mof_C 	C 	0.8079	0.769	0.5958	0.042
Mof_C 	C 	0.756	0.7118	0.9699	0.051
Mof_N 	N 	0.8659	0.5154	0.6943	0.044
Mof_C 	C 	0.6741	0.9461	0.7977	0.037
Mof_C 	C 	0.8531	0.5775	0.7402	0.056
Mof_N 	N 	0.8834	0.4957	0.7494	0.004
Mof_C 	C 	0.6674	0.9362	0.7682	0.056
Mof_C 	C 	0.8559	0.5702	0.7616	0.042
Mof_Mn	Mn	0.22271	0.23852	0.78604	0.787
Mof_N 	N 	0.2151	0.2238	0.66005	-0.203
Mof_N 	N 	0.29361	0.1187	0.7932	-0.191
Mof_N 	N 	0.10416	0.1707	0.7953	-0.215
Mof_N 	N 	0.3436	0.86046	0.7247	-0.192
Mof_N 	N 	0.84203	0.19397	0.72985	-0.213
Mof_N 	N 	0.2456	0.2645	0.41101	-0.203
Mof_C 	C 	0.0383	0.1501	0.7802	0.186
Mof_C 	C 	0.9025	0.1621	0.7465	0.182
Mof_N 	N 	0.2254	0.1763	0.5254	-0.026
Mof_C 	C 	0.2229	0.2045	0.5952	0.053
Mof_C 	C 	0.2366	0.2242	0.4665	0.046
Mof_N 	N 	0.38	0.9932	0.7826	-0.19
Mof_C 	C 	0.3314	0.0575	0.7849	0.045
Mof_C 	C 	0.3566	0.9248	0.7497	0.042
Mof_N 	N 	0.967	0.1173	0.7661	-0.176
Mof_N 	N 	0.1921	0.1917	0.524	-0.012
Mof_C 	C 	0.2046	0.2149	0.5945	0.059
Mof_C 	C 	0.2644	0.2809	0.9666	0.058
Mof_N 	N 	0.2648	0.1831	0.5303	-0.098
Mof_C 	C 	0.2452	0.207	0.5992	0.024
Mof_C 	C 	0.2704	0.2467	0.9703	0.025
Mof_N 	N 	0.1667	0.2262	0.5252	-0.118
Mof_C 	C 	0.1921	0.231	0.5958	0.042
Mof_C 	C 	0.244	0.2882	0.9699	0.051
Mof_N 	N 	0.1341	0.4846	0.6943	0.044
Mof_C 	C 	0.3259	0.0539	0.7977	0.037
Mof_C 	C 	0.1469	0.4225	0.7402	0.056
Mof_N 	N 	0.1166	0.5043	0.7494	0.004
Mof_C 	C 	0.3326	0.0638	0.7682	0.056
Mof_C 	C 	0.1441	0.4298	0.7616	0.042
Mof_Mn	Mn	0.26148	0.27729	0.28604	0.787
Mof_N 	N 	0.2762	0.2849	0.16005	-0.203
Mof_N 	N 	0.3813	0.20639	0.2932	-0.191
Mof_N 	N 	0.3293	0.39584	0.2953	-0.215
Mof_N 	N 	0.63954	0.1564	0.2247	-0.192
Mof_N 	N 	0.30603	0.65797	0.22985	-0.213
Mof_N 	N 	0.2355	0.2544	0.91101	-0.203
Mof_C 	C 	0.3499	0.4617	0.2802	0.186
Mof_C 	C 	0.3379	0.5975	0.2465	0.182
Mof_N 	N 	0.3237	0.2746	0.0254	-0.026
Mof_C 	C 	0.2955	0.2771	0.0952	0.053
Mof_C 	C 	0.2758	0.2634	0.9665	0.046
Mof_N 	N 	0.5068	0.12	0.2826	-0.19
Mof_C 	C 	0.4425	0.1686	0.2849	0.045
Mof_C 	C 	0.5752	0.1434	0.2497	0.042
Mof_N 	N 	0.3827	0.533	0.2661	-0.176
Mof_N 	N 	0.3083	0.3079	0.024	-0.012
Mof_C 	C 	0.2851	0.2954	0.0945	0.059
Mof_C 	C 	0.2191	0.2356	0.4666	0.058
Mof_N 	N 	0.3169	0.2352	0.0303	-0.098
Mof_C 	C 	0.293	0.2548	0.0992	0.024
Mof_C 	C 	0.2533	0.2296	0.4703	0.025
Mof_N 	N 	0.2738	0.3333	0.0252	-0.118
Mof_C 	C 	0.269	0.3079	0.0958	0.042
Mof_C 	C 	0.2118	0.256	0.4699	0.05
Mof_N 	N 	0.0154	0.3659	0.1943	0.044
Mof_C 	C 	0.4461	0.1741	0.2977	0.037
Mof_C 	C 	0.0775	0.3531	0.2402	0.056
Mof_N 	N 	0.9957	0.3834	0.2494	0.004
Mof_C 	C 	0.4362	0.1674	0.2682	0.057
Mof_C 	C 	0.0702	0.3559	0.2616	0.042
Mof_Mn	Mn	0.73852	0.72271	0.28604	0.787
Mof_N 	N 	0.7238	0.7151	0.16005	-0.203
Mof_N 	N 	0.6187	0.79361	0.2932	-0.191
Mof_N 	N 	0.6707	0.60416	0.2953	-0.215
Mof_N 	N 	0.36046	0.8436	0.2247	-0.192
Mof_N 	N 	0.69397	0.34203	0.22985	-0.213
Mof_N 	N 	0.7645	0.7456	0.91101	-0.203
Mof_C 	C 	0.6501	0.5383	0.2802	0.186
Mof_C 	C 	0.6621	0.4025	0.2465	0.182
Mof_N 	N 	0.6763	0.7254	0.0254	-0.026
Mof_C 	C 	0.7045	0.7229	0.0952	0.053
Mof_C 	C 	0.7242	0.7366	0.9665	0.046
Mof_N 	N 	0.4932	0.88	0.2826	-0.19
Mof_C 	C 	0.5575	0.8314	0.2849	0.045
Mof_C 	C 	0.4248	0.8566	0.2497	0.042
Mof_N 	N 	0.6173	0.467	0.2661	-0.176
Mof_N 	N 	0.6917	0.6921	0.024	-0.012
Mof_C 	C 	0.7149	0.7046	0.0945	0.059
Mof_C 	C 	0.7809	0.7644	0.4666	0.058
Mof_N 	N 	0.6831	0.7648	0.0303	-0.098
Mof_C 	C 	0.707	0.7452	0.0992	0.024
Mof_C 	C 	0.7467	0.7704	0.4703	0.025
Mof_N 	N 	0.7262	0.6667	0.0252	-0.118
Mof_C 	C 	0.731	0.6921	0.0958	0.042
Mof_C 	C 	0.7882	0.744	0.4699	0.05
Mof_N 	N 	0.9846	0.6341	0.1943	0.044
Mof_C 	C 	0.5539	0.8259	0.2977	0.037
Mof_C 	C 	0.9225	0.6469	0.2402	0.056
Mof_N 	N 	0.0043	0.6166	0.2494	0.004
Mof_C 	C 	0.5638	0.8326	0.2682	0.057
Mof_C 	C 	0.9298	0.6441	0.2616	0.042
Mof_Mn	Mn	0.72271	0.26148	0.71396	0.787
Mof_N 	N 	0.7151	0.2762	0.83995	-0.203
Mof_N 	N 	0.79361	0.3813	0.7068	-0.191
Mof_N 	N 	0.60416	0.3293	0.7047	-0.215
Mof_N 	N 	0.8436	0.63954	0.7753	-0.192
Mof_N 	N 	0.34203	0.30603	0.77015	-0.213
Mof_N 	N 	0.7456	0.2355	0.08899	-0.203
Mof_C 	C 	0.5383	0.3499	0.7198	0.186
Mof_C 	C 	0.4025	0.3379	0.7535	0.182
Mof_N 	N 	0.7254	0.3237	0.9746	-0.026
Mof_C 	C 	0.7229	0.2955	0.9048	0.053
Mof_C 	C 	0.7366	0.2758	0.0335	0.046
Mof_N 	N 	0.88	0.5068	0.7174	-0.19
Mof_C 	C 	0.8314	0.4425	0.7151	0.045
Mof_C 	C 	0.8566	0.5752	0.7503	0.042
Mof_N 	N 	0.467	0.3827	0.7339	-0.176
Mof_N 	N 	0.6921	0.3083	0.976	-0.012
Mof_C 	C 	0.7046	0.2851	0.9055	0.059
Mof_C 	C 	0.7644	0.2191	0.5334	0.058
Mof_N 	N 	0.7648	0.3169	0.9697	-0.098
Mof_C 	C 	0.7452	0.293	0.9008	0.024
Mof_C 	C 	0.7704	0.2533	0.5297	0.025
Mof_N 	N 	0.6667	0.2738	0.9748	-0.118
Mof_C 	C 	0.6921	0.269	0.9042	0.042
Mof_C 	C 	0.744	0.2118	0.5301	0.05
Mof_N 	N 	0.6341	0.0154	0.8057	0.044
Mof_C 	C 	0.8259	0.4461	0.7023	0.037
Mof_C 	C 	0.6469	0.0775	0.7598	0.056
Mof_N 	N 	0.6166	0.9957	0.7506	0.004
Mof_C 	C 	0.8326	0.4362	0.7318	0.057
Mof_C 	C 	0.6441	0.0702	0.7384	0.042
Mof_Mn	Mn	0.27729	0.73852	0.71396	0.787
Mof_N 	N 	0.2849	0.7238	0.83995	-0.203
Mof_N 	N 	0.20639	0.6187	0.7068	-0.191
Mof_N 	N 	0.39584	0.6707	0.7047	-0.215
Mof_N 	N 	0.1564	0.36046	0.7753	-0.192
Mof_N 	N 	0.65797	0.69397	0.77015	-0.213
Mof_N 	N 	0.2544	0.7645	0.08899	-0.203
Mof_C 	C 	0.4617	0.6501	0.7198	0.186
Mof_C 	C 	0.5975	0.6621	0.7535	0.182
Mof_N 	N 	0.2746	0.6763	0.9746	-0.026
Mof_C 	C 	0.2771	0.7045	0.9048	0.053
Mof_C 	C 	0.2634	0.7242	0.0335	0.046
Mof_N 	N 	0.12	0.4932	0.7174	-0.19
Mof_C 	C 	0.1686	0.5575	0.7151	0.045
Mof_C 	C 	0.1434	0.4248	0.7503	0.042
Mof_N 	N 	0.533	0.6173	0.7339	-0.176
Mof_N 	N 	0.3079	0.6917	0.976	-0.012
Mof_C 	C 	0.2954	0.7149	0.9055	0.059
Mof_C 	C 	0.2356	0.7809	0.5334	0.058
Mof_N 	N 	0.2352	0.6831	0.9697	-0.098
Mof_C 	C 	0.2548	0.707	0.9008	0.024
Mof_C 	C 	0.2296	0.7467	0.5297	0.025
Mof_N 	N 	0.3333	0.7262	0.9748	-0.118
Mof_C 	C 	0.3079	0.731	0.9042	0.042
Mof_C 	C 	0.256	0.7882	0.5301	0.05
Mof_N 	N 	0.3659	0.9846	0.8057	0.044
Mof_C 	C 	0.1741	0.5539	0.7023	0.037
Mof_C 	C 	0.3531	0.9225	0.7598	0.056
Mof_N 	N 	0.3834	0.0043	0.7506	0.004
Mof_C 	C 	0.1674	0.5638	0.7318	0.057
Mof_C 	C 	0.3559	0.9298	0.7384	0.042
_end
