# CIF file generated by openbabel 3.1.0, see https://openbabel.org
data_I
_chemical_name_common 'image0'
_cell_length_a 32.118
_cell_length_b 15.2133
_cell_length_c 13.1789
_cell_angle_alpha 90
_cell_angle_beta 95.256
_cell_angle_gamma 90
_space_group_name_H-M_alt 'P 1'
_space_group_name_Hall 'P 1'
loop_
    _symmetry_equiv_pos_as_xyz
    x,y,z
loop_
    _atom_site_label
    _atom_site_type_symbol
    _atom_site_fract_x
    _atom_site_fract_y
    _atom_site_fract_z
    _atom_site_occupancy
    La1      La       0.81188    0.79352    0.52861    1.000
    O1       O        0.86373    0.67320    0.49720    1.000
    O2       O        0.88440    0.80720    0.45830    1.000
    O3       O        0.23031    0.34010    0.44660    1.000
    O4       O        0.28446    0.42080    0.41720    1.000
    O5       O        0.20612    0.72990    0.14450    1.000
    O6       O        0.26574    0.65480    0.15850    1.000
    C1       C        0.92969    0.68610    0.43200    1.000
    C2       C        0.93408    0.59520    0.43100    1.000
    C3       C        0.97103    0.55774    0.40440    1.000
    C4       C        0.00360    0.61115    0.37893    1.000
    C5       C        0.99922    0.70204    0.38000    1.000
    C6       C        0.96227    0.73951    0.40650    1.000
    C7       C        0.04197    0.57402    0.35333    1.000
    C8       C        0.08243    0.60948    0.34530    1.000
    N1       N        0.10951    0.53920    0.32470    1.000
    N2       N        0.08578    0.46033    0.31990    1.000
    N3       N        0.04403    0.48184    0.33760    1.000
    C9       C        0.15005    0.53870    0.31440    1.000
    C10      C        0.17532    0.47500    0.36420    1.000
    C11      C        0.21804    0.47420    0.35430    1.000
    C12      C        0.23549    0.53720    0.29460    1.000
    C13      C        0.21022    0.60090    0.24480    1.000
    C14      C        0.16750    0.60170    0.25470    1.000
    C15      C        0.89050    0.72540    0.46450    1.000
    C16      C        0.24600    0.40720    0.40820    1.000
    C17      C        0.22910    0.66720    0.17720    1.000
    La2      La       0.31188    0.29352    0.52861    1.000
    O7       O        0.36373    0.17320    0.49720    1.000
    O8       O        0.38440    0.30720    0.45830    1.000
    O9       O        0.73031    0.84010    0.44660    1.000
    O10      O        0.78446    0.92080    0.41720    1.000
    O11      O        0.70612    0.22990    0.14450    1.000
    O12      O        0.76574    0.15480    0.15850    1.000
    C18      C        0.42969    0.18610    0.43200    1.000
    C19      C        0.43408    0.09520    0.43100    1.000
    C20      C        0.47103    0.05774    0.40440    1.000
    C21      C        0.50360    0.11115    0.37893    1.000
    C22      C        0.49922    0.20204    0.38000    1.000
    C23      C        0.46227    0.23951    0.40650    1.000
    C24      C        0.54197    0.07402    0.35333    1.000
    C25      C        0.58243    0.10948    0.34530    1.000
    N4       N        0.60951    0.03920    0.32470    1.000
    N5       N        0.58578    0.96033    0.31990    1.000
    N6       N        0.54403    0.98184    0.33760    1.000
    C26      C        0.65005    0.03870    0.31440    1.000
    C27      C        0.67532    0.97500    0.36420    1.000
    C28      C        0.71804    0.97420    0.35430    1.000
    C29      C        0.73549    0.03720    0.29460    1.000
    C30      C        0.71022    0.10090    0.24480    1.000
    C31      C        0.66750    0.10170    0.25470    1.000
    C32      C        0.39050    0.22540    0.46450    1.000
    C33      C        0.74600    0.90720    0.40820    1.000
    C34      C        0.72910    0.16720    0.17720    1.000
    La3      La       0.18812    0.79352    0.97139    1.000
    O13      O        0.13627    0.67320    0.00280    1.000
    O14      O        0.11560    0.80720    0.04170    1.000
    O15      O        0.76969    0.34010    0.05340    1.000
    O16      O        0.71554    0.42080    0.08280    1.000
    O17      O        0.79388    0.72990    0.35550    1.000
    O18      O        0.73426    0.65480    0.34150    1.000
    C35      C        0.07031    0.68610    0.06800    1.000
    C36      C        0.06592    0.59520    0.06900    1.000
    C37      C        0.02897    0.55774    0.09560    1.000
    C38      C        0.99640    0.61115    0.12107    1.000
    C39      C        0.00078    0.70204    0.12000    1.000
    C40      C        0.03773    0.73951    0.09350    1.000
    C41      C        0.95803    0.57402    0.14667    1.000
    C42      C        0.91757    0.60948    0.15470    1.000
    N7       N        0.89049    0.53920    0.17530    1.000
    N8       N        0.91422    0.46033    0.18010    1.000
    N9       N        0.95597    0.48184    0.16240    1.000
    C43      C        0.84995    0.53870    0.18560    1.000
    C44      C        0.82468    0.47500    0.13580    1.000
    C45      C        0.78196    0.47420    0.14570    1.000
    C46      C        0.76451    0.53720    0.20540    1.000
    C47      C        0.78978    0.60090    0.25520    1.000
    C48      C        0.83250    0.60170    0.24530    1.000
    C49      C        0.10950    0.72540    0.03550    1.000
    C50      C        0.75400    0.40720    0.09180    1.000
    C51      C        0.77090    0.66720    0.32280    1.000
    La4      La       0.68812    0.29352    0.97139    1.000
    O19      O        0.63627    0.17320    0.00280    1.000
    O20      O        0.61560    0.30720    0.04170    1.000
    O21      O        0.26969    0.84010    0.05340    1.000
    O22      O        0.21554    0.92080    0.08280    1.000
    O23      O        0.29388    0.22990    0.35550    1.000
    O24      O        0.23426    0.15480    0.34150    1.000
    C52      C        0.57031    0.18610    0.06800    1.000
    C53      C        0.56592    0.09520    0.06900    1.000
    C54      C        0.52897    0.05774    0.09560    1.000
    C55      C        0.49640    0.11115    0.12107    1.000
    C56      C        0.50078    0.20204    0.12000    1.000
    C57      C        0.53773    0.23951    0.09350    1.000
    C58      C        0.45803    0.07402    0.14667    1.000
    C59      C        0.41757    0.10948    0.15470    1.000
    N10      N        0.39049    0.03920    0.17530    1.000
    N11      N        0.41422    0.96033    0.18010    1.000
    N12      N        0.45597    0.98184    0.16240    1.000
    C60      C        0.34995    0.03870    0.18560    1.000
    C61      C        0.32468    0.97500    0.13580    1.000
    C62      C        0.28196    0.97420    0.14570    1.000
    C63      C        0.26451    0.03720    0.20540    1.000
    C64      C        0.28978    0.10090    0.25520    1.000
    C65      C        0.33250    0.10170    0.24530    1.000
    C66      C        0.60950    0.22540    0.03550    1.000
    C67      C        0.25400    0.90720    0.09180    1.000
    C68      C        0.27090    0.16720    0.32280    1.000
    La5      La       0.18812    0.20648    0.47139    1.000
    O25      O        0.13627    0.32680    0.50280    1.000
    O26      O        0.11560    0.19280    0.54170    1.000
    O27      O        0.76969    0.65990    0.55340    1.000
    O28      O        0.71554    0.57920    0.58280    1.000
    O29      O        0.79388    0.27010    0.85550    1.000
    O30      O        0.73426    0.34520    0.84150    1.000
    C69      C        0.07031    0.31390    0.56800    1.000
    C70      C        0.06592    0.40480    0.56900    1.000
    C71      C        0.02897    0.44226    0.59560    1.000
    C72      C        0.99640    0.38885    0.62107    1.000
    C73      C        0.00078    0.29796    0.62000    1.000
    C74      C        0.03773    0.26049    0.59350    1.000
    C75      C        0.95803    0.42598    0.64667    1.000
    C76      C        0.91757    0.39052    0.65470    1.000
    N13      N        0.89049    0.46080    0.67530    1.000
    N14      N        0.91422    0.53967    0.68010    1.000
    N15      N        0.95597    0.51816    0.66240    1.000
    C77      C        0.84995    0.46130    0.68560    1.000
    C78      C        0.82468    0.52500    0.63580    1.000
    C79      C        0.78196    0.52580    0.64570    1.000
    C80      C        0.76451    0.46280    0.70540    1.000
    C81      C        0.78978    0.39910    0.75520    1.000
    C82      C        0.83250    0.39830    0.74530    1.000
    C83      C        0.10950    0.27460    0.53550    1.000
    C84      C        0.75400    0.59280    0.59180    1.000
    C85      C        0.77090    0.33280    0.82280    1.000
    La6      La       0.68812    0.70648    0.47139    1.000
    O31      O        0.63627    0.82680    0.50280    1.000
    O32      O        0.61560    0.69280    0.54170    1.000
    O33      O        0.26969    0.15990    0.55340    1.000
    O34      O        0.21554    0.07920    0.58280    1.000
    O35      O        0.29388    0.77010    0.85550    1.000
    O36      O        0.23426    0.84520    0.84150    1.000
    C86      C        0.57031    0.81390    0.56800    1.000
    C87      C        0.56592    0.90480    0.56900    1.000
    C88      C        0.52897    0.94226    0.59560    1.000
    C89      C        0.49640    0.88885    0.62107    1.000
    C90      C        0.50078    0.79796    0.62000    1.000
    C91      C        0.53773    0.76049    0.59350    1.000
    C92      C        0.45803    0.92598    0.64667    1.000
    C93      C        0.41757    0.89052    0.65470    1.000
    N16      N        0.39049    0.96080    0.67530    1.000
    N17      N        0.41422    0.03967    0.68010    1.000
    N18      N        0.45597    0.01816    0.66240    1.000
    C94      C        0.34995    0.96130    0.68560    1.000
    C95      C        0.32468    0.02500    0.63580    1.000
    C96      C        0.28196    0.02580    0.64570    1.000
    C97      C        0.26451    0.96280    0.70540    1.000
    C98      C        0.28978    0.89910    0.75520    1.000
    C99      C        0.33250    0.89830    0.74530    1.000
    C100     C        0.60950    0.77460    0.53550    1.000
    C101     C        0.25400    0.09280    0.59180    1.000
    C102     C        0.27090    0.83280    0.82280    1.000
    La7      La       0.81188    0.20648    0.02861    1.000
    O37      O        0.86373    0.32680    0.99720    1.000
    O38      O        0.88440    0.19280    0.95830    1.000
    O39      O        0.23031    0.65990    0.94660    1.000
    O40      O        0.28446    0.57920    0.91720    1.000
    O41      O        0.20612    0.27010    0.64450    1.000
    O42      O        0.26574    0.34520    0.65850    1.000
    C103     C        0.92969    0.31390    0.93200    1.000
    C104     C        0.93408    0.40480    0.93100    1.000
    C105     C        0.97103    0.44226    0.90440    1.000
    C106     C        0.00360    0.38885    0.87893    1.000
    C107     C        0.99922    0.29796    0.88000    1.000
    C108     C        0.96227    0.26049    0.90650    1.000
    C109     C        0.04197    0.42598    0.85333    1.000
    C110     C        0.08243    0.39052    0.84530    1.000
    N19      N        0.10951    0.46080    0.82470    1.000
    N20      N        0.08578    0.53967    0.81990    1.000
    N21      N        0.04403    0.51816    0.83760    1.000
    C111     C        0.15005    0.46130    0.81440    1.000
    C112     C        0.17532    0.52500    0.86420    1.000
    C113     C        0.21804    0.52580    0.85430    1.000
    C114     C        0.23549    0.46280    0.79460    1.000
    C115     C        0.21022    0.39910    0.74480    1.000
    C116     C        0.16750    0.39830    0.75470    1.000
    C117     C        0.89050    0.27460    0.96450    1.000
    C118     C        0.24600    0.59280    0.90820    1.000
    C119     C        0.22910    0.33280    0.67720    1.000
    La8      La       0.31188    0.70648    0.02861    1.000
    O43      O        0.36373    0.82680    0.99720    1.000
    O44      O        0.38440    0.69280    0.95830    1.000
    O45      O        0.73031    0.15990    0.94660    1.000
    O46      O        0.78446    0.07920    0.91720    1.000
    O47      O        0.70612    0.77010    0.64450    1.000
    O48      O        0.76574    0.84520    0.65850    1.000
    C120     C        0.42969    0.81390    0.93200    1.000
    C121     C        0.43408    0.90480    0.93100    1.000
    C122     C        0.47103    0.94226    0.90440    1.000
    C123     C        0.50360    0.88885    0.87893    1.000
    C124     C        0.49922    0.79796    0.88000    1.000
    C125     C        0.46227    0.76049    0.90650    1.000
    C126     C        0.54197    0.92598    0.85333    1.000
    C127     C        0.58243    0.89052    0.84530    1.000
    N22      N        0.60951    0.96080    0.82470    1.000
    N23      N        0.58578    0.03967    0.81990    1.000
    N24      N        0.54403    0.01816    0.83760    1.000
    C128     C        0.65005    0.96130    0.81440    1.000
    C129     C        0.67532    0.02500    0.86420    1.000
    C130     C        0.71804    0.02580    0.85430    1.000
    C131     C        0.73549    0.96280    0.79460    1.000
    C132     C        0.71022    0.89910    0.74480    1.000
    C133     C        0.66750    0.89830    0.75470    1.000
    C134     C        0.39050    0.77460    0.96450    1.000
    C135     C        0.74600    0.09280    0.90820    1.000
    C136     C        0.72910    0.83280    0.67720    1.000
