data_functionalizedCrystal
_audit_creation_method	'EQeq! by Chris Wilmer'
_symmetry_space_group_name_H-M	'P1'
_symmetry_Int_Tables_number	1
_symmetry_cell_setting	triclinic
loop_
_symmetry_equiv_pos_as_xyz
  x,y,z
_cell_length_a	28.667
_cell_length_b	14.9105
_cell_length_c	12.013
_cell_angle_alpha	90
_cell_angle_beta	106.274
_cell_angle_gamma	90
loop_
_atom_site_label
_atom_site_type_symbol
_atom_site_fract_x
_atom_site_fract_y
_atom_site_fract_z
_atom_site_charge
Mof_Ce	Ce	0.32237	0.22084	0.56942	2.516
Mof_O 	O 	0.39463	0.1779	0.4951	-0.452
Mof_O 	O 	0.38788	0.3215	0.5332	-0.496
Mof_O 	O 	0.73305	0.6511	0.4691	-0.697
Mof_O 	O 	0.7982	0.5688	0.4818	-0.482
Mof_O 	O 	0.77688	0.3112	0.2081	-0.591
Mof_O 	O 	0.70267	0.2499	0.1394	-0.549
Mof_N 	N 	0.598	0.4152	0.3569	-0.112
Mof_C 	C 	0.4082	0.2584	0.4951	0.32
Mof_C 	C 	0.4516	0.2799	0.4526	-0.103
Mof_C 	C 	0.4799	0.2109	0.4299	0.037
Mof_H 	H 	0.4705	0.1516	0.4343	0.029
Mof_C 	C 	0.5222	0.2305	0.4006	-0.136
Mof_H 	H 	0.5416	0.1841	0.3871	0.076
Mof_C 	C 	0.5356	0.3187	0.3913	0.074
Mof_C 	C 	0.5058	0.3889	0.4093	-0.125
Mof_H 	H 	0.5136	0.4483	0.399	0.079
Mof_C 	C 	0.4644	0.3681	0.4429	0.037
Mof_H 	H 	0.4453	0.4139	0.4589	0.028
Mof_C 	C 	0.5826	0.3367	0.3682	-0.025
Mof_C 	C 	0.7527	0.5777	0.4505	0.44
Mof_C 	C 	0.7218	0.5017	0.3928	-0.158
Mof_C 	C 	0.6742	0.4947	0.3976	-0.009
Mof_H 	H 	0.6613	0.5377	0.4367	0.019
Mof_C 	C 	0.6454	0.4219	0.3426	0.031
Mof_C 	C 	0.664	0.3624	0.2772	-0.009
Mof_H 	H 	0.6444	0.3169	0.2359	0.047
Mof_C 	C 	0.7118	0.3705	0.2729	-0.153
Mof_C 	C 	0.7405	0.4393	0.3314	0.081
Mof_H 	H 	0.7726	0.4439	0.3296	0.019
Mof_C 	C 	0.732	0.306	0.2019	0.478
Mof_O 	O 	0.3763	0.1168	0.7175	0.373
Mof_H 	H 	0.595	0.281	0.349	0.041
Mof_O 	O 	0.3691	0.084	0.698	-0.587
Mof_C 	C 	0.3844	0.116	0.813	-0.561
Mof_H 	H 	0.4015	0.069	0.8626	0.223
Mof_H 	H 	0.3566	0.1336	0.8371	0.178
Mof_H 	H 	0.4056	0.1664	0.817	0.114
Mof_Ce	Ce	0.82237	0.72084	0.56942	2.518
Mof_O 	O 	0.89463	0.6779	0.4951	-0.451
Mof_O 	O 	0.88788	0.8215	0.5332	-0.495
Mof_O 	O 	0.23305	0.1511	0.4691	-0.696
Mof_O 	O 	0.2982	0.0688	0.4818	-0.482
Mof_O 	O 	0.27688	0.8112	0.2081	-0.591
Mof_O 	O 	0.20267	0.7499	0.1394	-0.549
Mof_N 	N 	0.098	0.9152	0.3569	-0.112
Mof_C 	C 	0.9082	0.7584	0.4951	0.32
Mof_C 	C 	0.9516	0.7799	0.4526	-0.103
Mof_C 	C 	0.9799	0.7109	0.4299	0.037
Mof_H 	H 	0.9705	0.6516	0.4343	0.029
Mof_C 	C 	0.0222	0.7305	0.4006	-0.136
Mof_H 	H 	0.0416	0.6841	0.3871	0.076
Mof_C 	C 	0.0356	0.8187	0.3913	0.074
Mof_C 	C 	0.0058	0.8889	0.4093	-0.125
Mof_H 	H 	0.0136	0.9483	0.399	0.079
Mof_C 	C 	0.9644	0.8681	0.4429	0.036
Mof_H 	H 	0.9453	0.9139	0.4589	0.028
Mof_C 	C 	0.0826	0.8367	0.3682	-0.025
Mof_C 	C 	0.2527	0.0777	0.4505	0.44
Mof_C 	C 	0.2218	0.0017	0.3928	-0.156
Mof_C 	C 	0.1742	0.9947	0.3976	-0.012
Mof_H 	H 	0.1613	0.0377	0.4367	0.02
Mof_C 	C 	0.1454	0.9219	0.3426	0.032
Mof_C 	C 	0.164	0.8624	0.2772	-0.01
Mof_H 	H 	0.1444	0.8169	0.2359	0.047
Mof_C 	C 	0.2118	0.8705	0.2729	-0.152
Mof_C 	C 	0.2405	0.9393	0.3314	0.079
Mof_H 	H 	0.2726	0.9439	0.3296	0.019
Mof_C 	C 	0.232	0.806	0.2019	0.478
Mof_O 	O 	0.8763	0.6168	0.7175	0.372
Mof_H 	H 	0.095	0.781	0.349	0.041
Mof_O 	O 	0.8691	0.584	0.698	-0.585
Mof_C 	C 	0.8844	0.616	0.813	-0.562
Mof_H 	H 	0.9015	0.569	0.8626	0.224
Mof_H 	H 	0.8566	0.6336	0.8371	0.179
Mof_H 	H 	0.9056	0.6664	0.817	0.115
Mof_Ce	Ce	0.67763	0.22084	0.93058	2.514
Mof_O 	O 	0.60537	0.1779	0.0049	-0.451
Mof_O 	O 	0.61212	0.3215	0.9668	-0.496
Mof_O 	O 	0.26695	0.6511	0.0309	-0.696
Mof_O 	O 	0.2018	0.5688	0.0182	-0.482
Mof_O 	O 	0.22312	0.3112	0.2919	-0.591
Mof_O 	O 	0.29733	0.2499	0.3606	-0.549
Mof_N 	N 	0.402	0.4152	0.1431	-0.112
Mof_C 	C 	0.5918	0.2584	0.0049	0.321
Mof_C 	C 	0.5484	0.2799	0.0474	-0.104
Mof_C 	C 	0.5201	0.2109	0.0701	0.038
Mof_H 	H 	0.5295	0.1516	0.0657	0.029
Mof_C 	C 	0.4778	0.2305	0.0994	-0.136
Mof_H 	H 	0.4584	0.1841	0.1129	0.077
Mof_C 	C 	0.4644	0.3187	0.1087	0.075
Mof_C 	C 	0.4942	0.3889	0.0907	-0.125
Mof_H 	H 	0.4864	0.4483	0.101	0.079
Mof_C 	C 	0.5356	0.3681	0.0571	0.037
Mof_H 	H 	0.5547	0.4139	0.0411	0.028
Mof_C 	C 	0.4174	0.3367	0.1318	-0.025
Mof_C 	C 	0.2473	0.5777	0.0495	0.44
Mof_C 	C 	0.2782	0.5017	0.1072	-0.158
Mof_C 	C 	0.3258	0.4947	0.1024	-0.009
Mof_H 	H 	0.3387	0.5377	0.0633	0.019
Mof_C 	C 	0.3546	0.4219	0.1574	0.031
Mof_C 	C 	0.336	0.3624	0.2228	-0.009
Mof_H 	H 	0.3556	0.3169	0.2641	0.047
Mof_C 	C 	0.2882	0.3705	0.2271	-0.152
Mof_C 	C 	0.2595	0.4393	0.1686	0.081
Mof_H 	H 	0.2274	0.4439	0.1704	0.019
Mof_C 	C 	0.268	0.306	0.2981	0.479
Mof_O 	O 	0.6237	0.1168	0.7825	0.371
Mof_H 	H 	0.405	0.281	0.151	0.041
Mof_O 	O 	0.6309	0.084	0.802	-0.585
Mof_C 	C 	0.6156	0.116	0.687	-0.559
Mof_H 	H 	0.5985	0.069	0.6374	0.223
Mof_H 	H 	0.6434	0.1336	0.6629	0.178
Mof_H 	H 	0.5944	0.1664	0.683	0.114
Mof_Ce	Ce	0.17763	0.72084	0.93058	2.519
Mof_O 	O 	0.10537	0.6779	0.0049	-0.451
Mof_O 	O 	0.11212	0.8215	0.9668	-0.494
Mof_O 	O 	0.76695	0.1511	0.0309	-0.695
Mof_O 	O 	0.7018	0.0688	0.0182	-0.48
Mof_O 	O 	0.72312	0.8112	0.2919	-0.591
Mof_O 	O 	0.79733	0.7499	0.3606	-0.549
Mof_N 	N 	0.902	0.9152	0.1431	-0.113
Mof_C 	C 	0.0918	0.7584	0.0049	0.319
Mof_C 	C 	0.0484	0.7799	0.0474	-0.104
Mof_C 	C 	0.0201	0.7109	0.0701	0.038
Mof_H 	H 	0.0295	0.6516	0.0657	0.029
Mof_C 	C 	0.9778	0.7305	0.0994	-0.138
Mof_H 	H 	0.9584	0.6841	0.1129	0.076
Mof_C 	C 	0.9644	0.8187	0.1087	0.075
Mof_C 	C 	0.9942	0.8889	0.0907	-0.126
Mof_H 	H 	0.9864	0.9483	0.101	0.079
Mof_C 	C 	0.0356	0.8681	0.0571	0.037
Mof_H 	H 	0.0547	0.9139	0.0411	0.027
Mof_C 	C 	0.9174	0.8367	0.1318	-0.025
Mof_C 	C 	0.7473	0.0777	0.0495	0.438
Mof_C 	C 	0.7782	0.0017	0.1072	-0.15
Mof_C 	C 	0.8258	0.9947	0.1024	-0.02
Mof_H 	H 	0.8387	0.0377	0.0633	0.024
Mof_C 	C 	0.8546	0.9219	0.1574	0.035
Mof_C 	C 	0.836	0.8624	0.2228	-0.013
Mof_H 	H 	0.8556	0.8169	0.2641	0.048
Mof_C 	C 	0.7882	0.8705	0.2271	-0.149
Mof_C 	C 	0.7595	0.9393	0.1686	0.074
Mof_H 	H 	0.7274	0.9439	0.1704	0.02
Mof_C 	C 	0.768	0.806	0.2981	0.477
Mof_O 	O 	0.1237	0.6168	0.7825	0.372
Mof_H 	H 	0.905	0.781	0.151	0.041
Mof_O 	O 	0.1309	0.584	0.802	-0.586
Mof_C 	C 	0.1156	0.616	0.687	-0.562
Mof_H 	H 	0.0985	0.569	0.6374	0.224
Mof_H 	H 	0.1434	0.6336	0.6629	0.179
Mof_H 	H 	0.0944	0.6664	0.683	0.115
Mof_Ce	Ce	0.67763	0.77916	0.43058	2.517
Mof_O 	O 	0.60537	0.8221	0.5049	-0.451
Mof_O 	O 	0.61212	0.6785	0.4668	-0.495
Mof_O 	O 	0.26695	0.3489	0.5309	-0.696
Mof_O 	O 	0.2018	0.4312	0.5182	-0.482
Mof_O 	O 	0.22312	0.6888	0.7919	-0.591
Mof_O 	O 	0.29733	0.7501	0.8606	-0.549
Mof_N 	N 	0.402	0.5848	0.6431	-0.112
Mof_C 	C 	0.5918	0.7416	0.5049	0.32
Mof_C 	C 	0.5484	0.7201	0.5474	-0.103
Mof_C 	C 	0.5201	0.7891	0.5701	0.037
Mof_H 	H 	0.5295	0.8484	0.5657	0.029
Mof_C 	C 	0.4778	0.7695	0.5994	-0.136
Mof_H 	H 	0.4584	0.8159	0.6129	0.076
Mof_C 	C 	0.4644	0.6813	0.6087	0.074
Mof_C 	C 	0.4942	0.6111	0.5907	-0.125
Mof_H 	H 	0.4864	0.5517	0.601	0.079
Mof_C 	C 	0.5356	0.6319	0.5571	0.037
Mof_H 	H 	0.5547	0.5861	0.5411	0.028
Mof_C 	C 	0.4174	0.6633	0.6318	-0.025
Mof_C 	C 	0.2473	0.4223	0.5495	0.44
Mof_C 	C 	0.2782	0.4983	0.6072	-0.158
Mof_C 	C 	0.3258	0.5053	0.6024	-0.009
Mof_H 	H 	0.3387	0.4623	0.5633	0.019
Mof_C 	C 	0.3546	0.5781	0.6574	0.031
Mof_C 	C 	0.336	0.6376	0.7228	-0.009
Mof_H 	H 	0.3556	0.6831	0.7641	0.047
Mof_C 	C 	0.2882	0.6295	0.7271	-0.153
Mof_C 	C 	0.2595	0.5607	0.6686	0.081
Mof_H 	H 	0.2274	0.5561	0.6704	0.019
Mof_C 	C 	0.268	0.694	0.7981	0.478
Mof_O 	O 	0.6237	0.8832	0.2825	0.373
Mof_H 	H 	0.405	0.719	0.651	0.041
Mof_O 	O 	0.6309	0.916	0.302	-0.587
Mof_C 	C 	0.6156	0.884	0.187	-0.561
Mof_H 	H 	0.5985	0.931	0.1374	0.223
Mof_H 	H 	0.6434	0.8664	0.1629	0.178
Mof_H 	H 	0.5944	0.8336	0.183	0.114
Mof_Ce	Ce	0.17763	0.27916	0.43058	2.518
Mof_O 	O 	0.10537	0.3221	0.5049	-0.451
Mof_O 	O 	0.11212	0.1785	0.4668	-0.495
Mof_O 	O 	0.76695	0.8489	0.5309	-0.696
Mof_O 	O 	0.7018	0.9312	0.5182	-0.482
Mof_O 	O 	0.72312	0.1888	0.7919	-0.591
Mof_O 	O 	0.79733	0.2501	0.8606	-0.549
Mof_N 	N 	0.902	0.0848	0.6431	-0.112
Mof_C 	C 	0.0918	0.2416	0.5049	0.32
Mof_C 	C 	0.0484	0.2201	0.5474	-0.103
Mof_C 	C 	0.0201	0.2891	0.5701	0.037
Mof_H 	H 	0.0295	0.3484	0.5657	0.029
Mof_C 	C 	0.9778	0.2695	0.5994	-0.136
Mof_H 	H 	0.9584	0.3159	0.6129	0.076
Mof_C 	C 	0.9644	0.1813	0.6087	0.074
Mof_C 	C 	0.9942	0.1111	0.5907	-0.125
Mof_H 	H 	0.9864	0.0517	0.601	0.079
Mof_C 	C 	0.0356	0.1319	0.5571	0.036
Mof_H 	H 	0.0547	0.0861	0.5411	0.028
Mof_C 	C 	0.9174	0.1633	0.6318	-0.025
Mof_C 	C 	0.7473	0.9223	0.5495	0.44
Mof_C 	C 	0.7782	0.9983	0.6072	-0.156
Mof_C 	C 	0.8258	0.0053	0.6024	-0.012
Mof_H 	H 	0.8387	0.9623	0.5633	0.02
Mof_C 	C 	0.8546	0.0781	0.6574	0.032
Mof_C 	C 	0.836	0.1376	0.7228	-0.01
Mof_H 	H 	0.8556	0.1831	0.7641	0.047
Mof_C 	C 	0.7882	0.1295	0.7271	-0.152
Mof_C 	C 	0.7595	0.0607	0.6686	0.079
Mof_H 	H 	0.7274	0.0561	0.6704	0.019
Mof_C 	C 	0.768	0.194	0.7981	0.478
Mof_O 	O 	0.1237	0.3832	0.2825	0.372
Mof_H 	H 	0.905	0.219	0.651	0.041
Mof_O 	O 	0.1309	0.416	0.302	-0.585
Mof_C 	C 	0.1156	0.384	0.187	-0.562
Mof_H 	H 	0.0985	0.431	0.1374	0.224
Mof_H 	H 	0.1434	0.3664	0.1629	0.179
Mof_H 	H 	0.0944	0.3336	0.183	0.115
Mof_Ce	Ce	0.32237	0.77916	0.06942	2.514
Mof_O 	O 	0.39463	0.8221	0.9951	-0.451
Mof_O 	O 	0.38788	0.6785	0.0332	-0.496
Mof_O 	O 	0.73305	0.3489	0.9691	-0.696
Mof_O 	O 	0.7982	0.4312	0.9818	-0.482
Mof_O 	O 	0.77688	0.6888	0.7081	-0.591
Mof_O 	O 	0.70267	0.7501	0.6394	-0.549
Mof_N 	N 	0.598	0.5848	0.8569	-0.112
Mof_C 	C 	0.4082	0.7416	0.9951	0.321
Mof_C 	C 	0.4516	0.7201	0.9526	-0.104
Mof_C 	C 	0.4799	0.7891	0.9299	0.038
Mof_H 	H 	0.4705	0.8484	0.9343	0.029
Mof_C 	C 	0.5222	0.7695	0.9006	-0.136
Mof_H 	H 	0.5416	0.8159	0.8871	0.077
Mof_C 	C 	0.5356	0.6813	0.8913	0.075
Mof_C 	C 	0.5058	0.6111	0.9093	-0.125
Mof_H 	H 	0.5136	0.5517	0.899	0.079
Mof_C 	C 	0.4644	0.6319	0.9429	0.037
Mof_H 	H 	0.4453	0.5861	0.9589	0.028
Mof_C 	C 	0.5826	0.6633	0.8682	-0.025
Mof_C 	C 	0.7527	0.4223	0.9505	0.44
Mof_C 	C 	0.7218	0.4983	0.8928	-0.158
Mof_C 	C 	0.6742	0.5053	0.8976	-0.009
Mof_H 	H 	0.6613	0.4623	0.9367	0.019
Mof_C 	C 	0.6454	0.5781	0.8426	0.031
Mof_C 	C 	0.664	0.6376	0.7772	-0.009
Mof_H 	H 	0.6444	0.6831	0.7359	0.047
Mof_C 	C 	0.7118	0.6295	0.7729	-0.152
Mof_C 	C 	0.7405	0.5607	0.8314	0.081
Mof_H 	H 	0.7726	0.5561	0.8296	0.019
Mof_C 	C 	0.732	0.694	0.7019	0.479
Mof_O 	O 	0.3763	0.8832	0.2175	0.371
Mof_H 	H 	0.595	0.719	0.849	0.041
Mof_O 	O 	0.3691	0.916	0.198	-0.585
Mof_C 	C 	0.3844	0.884	0.313	-0.559
Mof_H 	H 	0.4015	0.931	0.3626	0.223
Mof_H 	H 	0.3566	0.8664	0.3371	0.178
Mof_H 	H 	0.4056	0.8336	0.317	0.114
Mof_Ce	Ce	0.82237	0.27916	0.06942	2.519
Mof_O 	O 	0.89463	0.3221	0.9951	-0.451
Mof_O 	O 	0.88788	0.1785	0.0332	-0.494
Mof_O 	O 	0.23305	0.8489	0.9691	-0.695
Mof_O 	O 	0.2982	0.9312	0.9818	-0.48
Mof_O 	O 	0.27688	0.1888	0.7081	-0.591
Mof_O 	O 	0.20267	0.2501	0.6394	-0.549
Mof_N 	N 	0.098	0.0848	0.8569	-0.113
Mof_C 	C 	0.9082	0.2416	0.9951	0.319
Mof_C 	C 	0.9516	0.2201	0.9526	-0.104
Mof_C 	C 	0.9799	0.2891	0.9299	0.038
Mof_H 	H 	0.9705	0.3484	0.9343	0.029
Mof_C 	C 	0.0222	0.2695	0.9006	-0.138
Mof_H 	H 	0.0416	0.3159	0.8871	0.076
Mof_C 	C 	0.0356	0.1813	0.8913	0.075
Mof_C 	C 	0.0058	0.1111	0.9093	-0.126
Mof_H 	H 	0.0136	0.0517	0.899	0.079
Mof_C 	C 	0.9644	0.1319	0.9429	0.037
Mof_H 	H 	0.9453	0.0861	0.9589	0.027
Mof_C 	C 	0.0826	0.1633	0.8682	-0.025
Mof_C 	C 	0.2527	0.9223	0.9505	0.438
Mof_C 	C 	0.2218	0.9983	0.8928	-0.15
Mof_C 	C 	0.1742	0.0053	0.8976	-0.02
Mof_H 	H 	0.1613	0.9623	0.9367	0.024
Mof_C 	C 	0.1454	0.0781	0.8426	0.035
Mof_C 	C 	0.164	0.1376	0.7772	-0.013
Mof_H 	H 	0.1444	0.1831	0.7359	0.048
Mof_C 	C 	0.2118	0.1295	0.7729	-0.149
Mof_C 	C 	0.2405	0.0607	0.8314	0.074
Mof_H 	H 	0.2726	0.0561	0.8296	0.02
Mof_C 	C 	0.232	0.194	0.7019	0.477
Mof_O 	O 	0.8763	0.3832	0.2175	0.372
Mof_H 	H 	0.095	0.219	0.849	0.041
Mof_O 	O 	0.8691	0.416	0.198	-0.586
Mof_C 	C 	0.8844	0.384	0.313	-0.562
Mof_H 	H 	0.9015	0.431	0.3626	0.224
Mof_H 	H 	0.8566	0.3664	0.3371	0.179
Mof_H 	H 	0.9056	0.3336	0.317	0.115
_end
