# CIF file generated by openbabel 3.1.0, see https://openbabel.org
data_I
_chemical_name_common 'image0'
_cell_length_a 20.896
_cell_length_b 7.3872
_cell_length_c 31.834
_cell_angle_alpha 90
_cell_angle_beta 124.636
_cell_angle_gamma 90
_space_group_name_H-M_alt 'P 1'
_space_group_name_Hall 'P 1'
loop_
    _symmetry_equiv_pos_as_xyz
    x,y,z
loop_
    _atom_site_label
    _atom_site_type_symbol
    _atom_site_fract_x
    _atom_site_fract_y
    _atom_site_fract_z
    _atom_site_occupancy
    Zn1      Zn       0.67447    0.44651    0.65602    1.000
    Zn2      Zn       0.67786    0.81121    0.59050    1.000
    F1       F        0.00710    0.30790    0.54130    1.000
    F2       F        0.07340    0.38580    0.62010    1.000
    F3       F        0.11170    0.16660    0.59530    1.000
    F4       F        0.90460    0.04200    0.51253    1.000
    F5       F        0.93370    0.83150    0.56682    1.000
    F6       F        0.01190    0.89580    0.54556    1.000
    F7       F        0.63000    0.39750    0.81150    1.000
    F8       F        0.55180    0.58790    0.80941    1.000
    F9       F        0.63140    0.44500    0.87820    1.000
    F10      F        0.77030    0.51730    0.84230    1.000
    F11      F        0.82230    0.71390    0.90236    1.000
    F12      F        0.78150    0.46230    0.91260    1.000
    O1       O        0.73690    0.59030    0.59340    1.000
    O2       O        0.72610    0.33360    0.62600    1.000
    O3       O        0.25910    0.64400    0.80100    1.000
    O4       O        0.25410    0.89230    0.83900    1.000
    O5       O        0.57250    0.10890    0.98094    1.000
    O6       O        0.69760    0.06790    0.04441    1.000
    O7       O        0.58560    0.11350    0.64680    1.000
    O8       O        0.67900    0.28930    0.70610    1.000
    N1       N        0.57380    0.54830    0.59640    1.000
    N2       N        0.57790    0.69570    0.57400    1.000
    N3       N        0.50710    0.75180    0.53680    1.000
    C1       C        0.75600    0.43060    0.60870    1.000
    C2       C        0.81860    0.34640    0.60500    1.000
    C3       C        0.84770    0.17760    0.62520    1.000
    H1       H        0.82750    0.11190    0.64000    1.000
    C4       C        0.90730    0.10610    0.62320    1.000
    H2       H        0.92690    0.99220    0.63710    1.000
    C5       C        0.93830    0.20020    0.60110    1.000
    C6       C        0.90760    0.36950    0.58020    1.000
    H3       H        0.92700    0.43470    0.56480    1.000
    C7       C        0.84800    0.44170    0.58230    1.000
    H4       H        0.82790    0.55520    0.56830    1.000
    C8       C        0.00400    0.10850    0.59980    1.000
    C9       C        0.04930    0.24310    0.58850    1.000
    C10      C        0.96410    0.96850    0.55590    1.000
    C11      C        0.06480    0.02010    0.65220    1.000
    C12      C        0.09460    0.84670    0.65770    1.000
    H5       H        0.07710    0.77670    0.62880    1.000
    C13      C        0.14930    0.77700    0.70500    1.000
    H6       H        0.16860    0.66090    0.70780    1.000
    C14      C        0.17580    0.87830    0.74840    1.000
    C15      C        0.14760    0.05070    0.74350    1.000
    H7       H        0.16590    0.12140    0.77240    1.000
    C16      C        0.09230    0.11940    0.69590    1.000
    H8       H        0.07310    0.23540    0.69330    1.000
    C17      C        0.23410    0.79980    0.80010    1.000
    C18      C        0.49820    0.50860    0.57220    1.000
    H9       H        0.47760    0.41160    0.57950    1.000
    C19      C        0.45650    0.63510    0.53490    1.000
    H10      H        0.40260    0.63960    0.51240    1.000
    C20      C        0.64120    0.05940    0.99790    1.000
    C21      C        0.65700    0.97880    0.96160    1.000
    C22      C        0.60190    0.98910    0.90900    1.000
    H11      H        0.55670    0.05590    0.89610    1.000
    C23      C        0.72430    0.88010    0.98000    1.000
    H12      H        0.76280    0.87700    0.01490    1.000
    C24      C        0.73480    0.78550    0.94650    1.000
    H13      H        0.77940    0.71640    0.95940    1.000
    C25      C        0.67980    0.79290    0.89450    1.000
    C26      C        0.61380    0.90220    0.87610    1.000
    H14      H        0.57780    0.91540    0.84110    1.000
    C27      C        0.68400    0.68010    0.85540    1.000
    C28      C        0.62420    0.52540    0.83820    1.000
    C29      C        0.76550    0.59260    0.87870    1.000
    C30      C        0.66920    0.80000    0.81090    1.000
    C31      C        0.62310    0.74780    0.75990    1.000
    H15      H        0.59960    0.63440    0.75130    1.000
    C32      C        0.61180    0.86290    0.72170    1.000
    H16      H        0.57950    0.82680    0.68770    1.000
    C33      C        0.64770    0.03000    0.73330    1.000
    C34      C        0.69540    0.08120    0.78410    1.000
    H17      H        0.72090    0.19220    0.79270    1.000
    C35      C        0.70550    0.96930    0.82200    1.000
    H18      H        0.73710    0.00720    0.85580    1.000
    C36      C        0.63580    0.15150    0.69200    1.000
    Zn3      Zn       0.32553    0.44651    0.84398    1.000
    Zn4      Zn       0.32214    0.81121    0.90950    1.000
    F13      F        0.99290    0.30790    0.95870    1.000
    F14      F        0.92660    0.38580    0.87990    1.000
    F15      F        0.88830    0.16660    0.90470    1.000
    F16      F        0.09540    0.04200    0.98747    1.000
    F17      F        0.06630    0.83150    0.93318    1.000
    F18      F        0.98810    0.89580    0.95444    1.000
    F19      F        0.37000    0.39750    0.68850    1.000
    F20      F        0.44820    0.58790    0.69059    1.000
    F21      F        0.36860    0.44500    0.62180    1.000
    F22      F        0.22970    0.51730    0.65770    1.000
    F23      F        0.17770    0.71390    0.59764    1.000
    F24      F        0.21850    0.46230    0.58740    1.000
    O9       O        0.26310    0.59030    0.90660    1.000
    O10      O        0.27390    0.33360    0.87400    1.000
    O11      O        0.74090    0.64400    0.69900    1.000
    O12      O        0.74590    0.89230    0.66100    1.000
    O13      O        0.42750    0.10890    0.51906    1.000
    O14      O        0.30240    0.06790    0.45559    1.000
    O15      O        0.41440    0.11350    0.85320    1.000
    O16      O        0.32100    0.28930    0.79390    1.000
    N4       N        0.42620    0.54830    0.90360    1.000
    N5       N        0.42210    0.69570    0.92600    1.000
    N6       N        0.49290    0.75180    0.96320    1.000
    C37      C        0.24400    0.43060    0.89130    1.000
    C38      C        0.18140    0.34640    0.89500    1.000
    C39      C        0.15230    0.17760    0.87480    1.000
    H19      H        0.17250    0.11190    0.86000    1.000
    C40      C        0.09270    0.10610    0.87680    1.000
    H20      H        0.07310    0.99220    0.86290    1.000
    C41      C        0.06170    0.20020    0.89890    1.000
    C42      C        0.09240    0.36950    0.91980    1.000
    H21      H        0.07300    0.43470    0.93520    1.000
    C43      C        0.15200    0.44170    0.91770    1.000
    H22      H        0.17210    0.55520    0.93170    1.000
    C44      C        0.99600    0.10850    0.90020    1.000
    C45      C        0.95070    0.24310    0.91150    1.000
    C46      C        0.03590    0.96850    0.94410    1.000
    C47      C        0.93520    0.02010    0.84780    1.000
    C48      C        0.90540    0.84670    0.84230    1.000
    H23      H        0.92290    0.77670    0.87120    1.000
    C49      C        0.85070    0.77700    0.79500    1.000
    H24      H        0.83140    0.66090    0.79220    1.000
    C50      C        0.82420    0.87830    0.75160    1.000
    C51      C        0.85240    0.05070    0.75650    1.000
    H25      H        0.83410    0.12140    0.72760    1.000
    C52      C        0.90770    0.11940    0.80410    1.000
    H26      H        0.92690    0.23540    0.80670    1.000
    C53      C        0.76590    0.79980    0.69990    1.000
    C54      C        0.50180    0.50860    0.92780    1.000
    H27      H        0.52240    0.41160    0.92050    1.000
    C55      C        0.54350    0.63510    0.96510    1.000
    H28      H        0.59740    0.63960    0.98760    1.000
    C56      C        0.35880    0.05940    0.50210    1.000
    C57      C        0.34300    0.97880    0.53840    1.000
    C58      C        0.39810    0.98910    0.59100    1.000
    H29      H        0.44330    0.05590    0.60390    1.000
    C59      C        0.27570    0.88010    0.52000    1.000
    H30      H        0.23720    0.87700    0.48510    1.000
    C60      C        0.26520    0.78550    0.55350    1.000
    H31      H        0.22060    0.71640    0.54060    1.000
    C61      C        0.32020    0.79290    0.60550    1.000
    C62      C        0.38620    0.90220    0.62390    1.000
    H32      H        0.42220    0.91540    0.65890    1.000
    C63      C        0.31600    0.68010    0.64460    1.000
    C64      C        0.37580    0.52540    0.66180    1.000
    C65      C        0.23450    0.59260    0.62130    1.000
    C66      C        0.33080    0.80000    0.68910    1.000
    C67      C        0.37690    0.74780    0.74010    1.000
    H33      H        0.40040    0.63440    0.74870    1.000
    C68      C        0.38820    0.86290    0.77830    1.000
    H34      H        0.42050    0.82680    0.81230    1.000
    C69      C        0.35230    0.03000    0.76670    1.000
    C70      C        0.30460    0.08120    0.71590    1.000
    H35      H        0.27910    0.19220    0.70730    1.000
    C71      C        0.29450    0.96930    0.67800    1.000
    H36      H        0.26290    0.00720    0.64420    1.000
    C72      C        0.36420    0.15150    0.80800    1.000
    Zn5      Zn       0.32553    0.55349    0.34398    1.000
    Zn6      Zn       0.32214    0.18879    0.40950    1.000
    F25      F        0.99290    0.69210    0.45870    1.000
    F26      F        0.92660    0.61420    0.37990    1.000
    F27      F        0.88830    0.83340    0.40470    1.000
    F28      F        0.09540    0.95800    0.48747    1.000
    F29      F        0.06630    0.16850    0.43318    1.000
    F30      F        0.98810    0.10420    0.45444    1.000
    F31      F        0.37000    0.60250    0.18850    1.000
    F32      F        0.44820    0.41210    0.19059    1.000
    F33      F        0.36860    0.55500    0.12180    1.000
    F34      F        0.22970    0.48270    0.15770    1.000
    F35      F        0.17770    0.28610    0.09764    1.000
    F36      F        0.21850    0.53770    0.08740    1.000
    O17      O        0.26310    0.40970    0.40660    1.000
    O18      O        0.27390    0.66640    0.37400    1.000
    O19      O        0.74090    0.35600    0.19900    1.000
    O20      O        0.74590    0.10770    0.16100    1.000
    O21      O        0.42750    0.89110    0.01906    1.000
    O22      O        0.30240    0.93210    0.95559    1.000
    O23      O        0.41440    0.88650    0.35320    1.000
    O24      O        0.32100    0.71070    0.29390    1.000
    N7       N        0.42620    0.45170    0.40360    1.000
    N8       N        0.42210    0.30430    0.42600    1.000
    N9       N        0.49290    0.24820    0.46320    1.000
    C73      C        0.24400    0.56940    0.39130    1.000
    C74      C        0.18140    0.65360    0.39500    1.000
    C75      C        0.15230    0.82240    0.37480    1.000
    H37      H        0.17250    0.88810    0.36000    1.000
    C76      C        0.09270    0.89390    0.37680    1.000
    H38      H        0.07310    0.00780    0.36290    1.000
    C77      C        0.06170    0.79980    0.39890    1.000
    C78      C        0.09240    0.63050    0.41980    1.000
    H39      H        0.07300    0.56530    0.43520    1.000
    C79      C        0.15200    0.55830    0.41770    1.000
    H40      H        0.17210    0.44480    0.43170    1.000
    C80      C        0.99600    0.89150    0.40020    1.000
    C81      C        0.95070    0.75690    0.41150    1.000
    C82      C        0.03590    0.03150    0.44410    1.000
    C83      C        0.93520    0.97990    0.34780    1.000
    C84      C        0.90540    0.15330    0.34230    1.000
    H41      H        0.92290    0.22330    0.37120    1.000
    C85      C        0.85070    0.22300    0.29500    1.000
    H42      H        0.83140    0.33910    0.29220    1.000
    C86      C        0.82420    0.12170    0.25160    1.000
    C87      C        0.85240    0.94930    0.25650    1.000
    H43      H        0.83410    0.87860    0.22760    1.000
    C88      C        0.90770    0.88060    0.30410    1.000
    H44      H        0.92690    0.76460    0.30670    1.000
    C89      C        0.76590    0.20020    0.19990    1.000
    C90      C        0.50180    0.49140    0.42780    1.000
    H45      H        0.52240    0.58840    0.42050    1.000
    C91      C        0.54350    0.36490    0.46510    1.000
    H46      H        0.59740    0.36040    0.48760    1.000
    C92      C        0.35880    0.94060    0.00210    1.000
    C93      C        0.34300    0.02120    0.03840    1.000
    C94      C        0.39810    0.01090    0.09100    1.000
    H47      H        0.44330    0.94410    0.10390    1.000
    C95      C        0.27570    0.11990    0.02000    1.000
    H48      H        0.23720    0.12300    0.98510    1.000
    C96      C        0.26520    0.21450    0.05350    1.000
    H49      H        0.22060    0.28360    0.04060    1.000
    C97      C        0.32020    0.20710    0.10550    1.000
    C98      C        0.38620    0.09780    0.12390    1.000
    H50      H        0.42220    0.08460    0.15890    1.000
    C99      C        0.31600    0.31990    0.14460    1.000
    C100     C        0.37580    0.47460    0.16180    1.000
    C101     C        0.23450    0.40740    0.12130    1.000
    C102     C        0.33080    0.20000    0.18910    1.000
    C103     C        0.37690    0.25220    0.24010    1.000
    H51      H        0.40040    0.36560    0.24870    1.000
    C104     C        0.38820    0.13710    0.27830    1.000
    H52      H        0.42050    0.17320    0.31230    1.000
    C105     C        0.35230    0.97000    0.26670    1.000
    C106     C        0.30460    0.91880    0.21590    1.000
    H53      H        0.27910    0.80780    0.20730    1.000
    C107     C        0.29450    0.03070    0.17800    1.000
    H54      H        0.26290    0.99280    0.14420    1.000
    C108     C        0.36420    0.84850    0.30800    1.000
    Zn7      Zn       0.67447    0.55349    0.15602    1.000
    Zn8      Zn       0.67786    0.18879    0.09050    1.000
    F37      F        0.00710    0.69210    0.04130    1.000
    F38      F        0.07340    0.61420    0.12010    1.000
    F39      F        0.11170    0.83340    0.09530    1.000
    F40      F        0.90460    0.95800    0.01253    1.000
    F41      F        0.93370    0.16850    0.06682    1.000
    F42      F        0.01190    0.10420    0.04556    1.000
    F43      F        0.63000    0.60250    0.31150    1.000
    F44      F        0.55180    0.41210    0.30941    1.000
    F45      F        0.63140    0.55500    0.37820    1.000
    F46      F        0.77030    0.48270    0.34230    1.000
    F47      F        0.82230    0.28610    0.40236    1.000
    F48      F        0.78150    0.53770    0.41260    1.000
    O25      O        0.73690    0.40970    0.09340    1.000
    O26      O        0.72610    0.66640    0.12600    1.000
    O27      O        0.25910    0.35600    0.30100    1.000
    O28      O        0.25410    0.10770    0.33900    1.000
    O29      O        0.57250    0.89110    0.48094    1.000
    O30      O        0.69760    0.93210    0.54441    1.000
    O31      O        0.58560    0.88650    0.14680    1.000
    O32      O        0.67900    0.71070    0.20610    1.000
    N10      N        0.57380    0.45170    0.09640    1.000
    N11      N        0.57790    0.30430    0.07400    1.000
    N12      N        0.50710    0.24820    0.03680    1.000
    C109     C        0.75600    0.56940    0.10870    1.000
    C110     C        0.81860    0.65360    0.10500    1.000
    C111     C        0.84770    0.82240    0.12520    1.000
    H55      H        0.82750    0.88810    0.14000    1.000
    C112     C        0.90730    0.89390    0.12320    1.000
    H56      H        0.92690    0.00780    0.13710    1.000
    C113     C        0.93830    0.79980    0.10110    1.000
    C114     C        0.90760    0.63050    0.08020    1.000
    H57      H        0.92700    0.56530    0.06480    1.000
    C115     C        0.84800    0.55830    0.08230    1.000
    H58      H        0.82790    0.44480    0.06830    1.000
    C116     C        0.00400    0.89150    0.09980    1.000
    C117     C        0.04930    0.75690    0.08850    1.000
    C118     C        0.96410    0.03150    0.05590    1.000
    C119     C        0.06480    0.97990    0.15220    1.000
    C120     C        0.09460    0.15330    0.15770    1.000
    H59      H        0.07710    0.22330    0.12880    1.000
    C121     C        0.14930    0.22300    0.20500    1.000
    H60      H        0.16860    0.33910    0.20780    1.000
    C122     C        0.17580    0.12170    0.24840    1.000
    C123     C        0.14760    0.94930    0.24350    1.000
    H61      H        0.16590    0.87860    0.27240    1.000
    C124     C        0.09230    0.88060    0.19590    1.000
    H62      H        0.07310    0.76460    0.19330    1.000
    C125     C        0.23410    0.20020    0.30010    1.000
    C126     C        0.49820    0.49140    0.07220    1.000
    H63      H        0.47760    0.58840    0.07950    1.000
    C127     C        0.45650    0.36490    0.03490    1.000
    H64      H        0.40260    0.36040    0.01240    1.000
    C128     C        0.64120    0.94060    0.49790    1.000
    C129     C        0.65700    0.02120    0.46160    1.000
    C130     C        0.60190    0.01090    0.40900    1.000
    H65      H        0.55670    0.94410    0.39610    1.000
    C131     C        0.72430    0.11990    0.48000    1.000
    H66      H        0.76280    0.12300    0.51490    1.000
    C132     C        0.73480    0.21450    0.44650    1.000
    H67      H        0.77940    0.28360    0.45940    1.000
    C133     C        0.67980    0.20710    0.39450    1.000
    C134     C        0.61380    0.09780    0.37610    1.000
    H68      H        0.57780    0.08460    0.34110    1.000
    C135     C        0.68400    0.31990    0.35540    1.000
    C136     C        0.62420    0.47460    0.33820    1.000
    C137     C        0.76550    0.40740    0.37870    1.000
    C138     C        0.66920    0.20000    0.31090    1.000
    C139     C        0.62310    0.25220    0.25990    1.000
    H69      H        0.59960    0.36560    0.25130    1.000
    C140     C        0.61180    0.13710    0.22170    1.000
    H70      H        0.57950    0.17320    0.18770    1.000
    C141     C        0.64770    0.97000    0.23330    1.000
    C142     C        0.69540    0.91880    0.28410    1.000
    H71      H        0.72090    0.80780    0.29270    1.000
    C143     C        0.70550    0.03070    0.32200    1.000
    H72      H        0.73710    0.99280    0.35580    1.000
    C144     C        0.63580    0.84850    0.19200    1.000
    Zn9      Zn       0.50000    0.00000    0.50000    1.000
    Zn10     Zn       0.50000    0.00000    0.00000    1.000
