# CIF file generated by openbabel 3.1.0, see https://openbabel.org
data_I
_chemical_name_common 'image0'
_cell_length_a 26.423
_cell_length_b 26.423
_cell_length_c 5.0845
_cell_angle_alpha 90
_cell_angle_beta 90
_cell_angle_gamma 90
_space_group_name_H-M_alt 'P 1'
_space_group_name_Hall 'P 1'
loop_
    _symmetry_equiv_pos_as_xyz
    x,y,z
loop_
    _atom_site_label
    _atom_site_type_symbol
    _atom_site_fract_x
    _atom_site_fract_y
    _atom_site_fract_z
    _atom_site_occupancy
    Zn1      Zn       0.27328    0.21436    0.89840    1.000
    O1       O        0.22020    0.25210    0.07070    1.000
    H1       H        0.19930    0.26320    0.95770    1.000
    N1       N        0.25320    0.14210    0.88100    1.000
    C1       C        0.26980    0.10610    0.03400    1.000
    H2       H        0.29570    0.10980    0.15630    1.000
    N2       N        0.24400    0.06250    0.98960    1.000
    C2       C        0.21480    0.12090    0.73330    1.000
    O2       O        0.27640    0.83410    0.38800    1.000
    C3       C        0.18480    0.14290    0.54240    1.000
    H3       H        0.18910    0.17680    0.49730    1.000
    O3       O        0.31630    0.87500    0.69600    1.000
    C4       C        0.14830    0.11380    0.41970    1.000
    C5       C        0.11800    0.13480    0.22700    1.000
    H4       H        0.12270    0.16860    0.18170    1.000
    C6       C        0.08070    0.10730    0.09800    1.000
    H5       H        0.06070    0.12250    0.97030    1.000
    C7       C        0.07370    0.05670    0.16400    1.000
    H6       H        0.04900    0.03750    0.07930    1.000
    C8       C        0.10400    0.03540    0.35600    1.000
    H7       H        0.09940    0.00160    0.40100    1.000
    C9       C        0.14120    0.06320    0.48470    1.000
    C10      C        0.17080    0.04090    0.67670    1.000
    H8       H        0.16680    0.00700    0.72030    1.000
    C11      C        0.20650    0.07070    0.80200    1.000
    C12      C        0.25760    0.01400    0.10600    1.000
    C13      C        0.28370    0.92360    0.33300    1.000
    C14      C        0.27910    0.01280    0.35400    1.000
    H9       H        0.28460    0.04300    0.44340    1.000
    C15      C        0.29250    0.96780    0.47200    1.000
    H10      H        0.30690    0.96710    0.63880    1.000
    C16      C        0.26230    0.92320    0.08600    1.000
    H11      H        0.25650    0.89300    0.99670    1.000
    C17      C        0.24960    0.96900    0.97500    1.000
    H12      H        0.23530    0.96970    0.80800    1.000
    C18      C        0.29760    0.87340    0.45700    1.000
    O4       O        0.34270    0.86840    0.53400    1.000
    C19      C        0.30710    0.00560    0.17600    1.000
    H13      H        0.33120    0.03060    0.14600    1.000
    C20      C        0.32170    0.95970    0.29100    1.000
    H14      H        0.35520    0.95360    0.33870    1.000
    C21      C        0.23250    0.92900    0.26500    1.000
    H15      H        0.20820    0.90410    0.29250    1.000
    C22      C        0.22200    0.97620    0.15300    1.000
    H16      H        0.18870    0.98290    0.10560    1.000
    Zn2      Zn       0.77328    0.71436    0.39840    1.000
    O5       O        0.72020    0.75210    0.57070    1.000
    H17      H        0.69930    0.76320    0.45770    1.000
    N3       N        0.75320    0.64210    0.38100    1.000
    C23      C        0.76980    0.60610    0.53400    1.000
    H18      H        0.79570    0.60980    0.65630    1.000
    N4       N        0.74400    0.56250    0.48960    1.000
    C24      C        0.71480    0.62090    0.23330    1.000
    O6       O        0.77640    0.33410    0.88800    1.000
    C25      C        0.68480    0.64290    0.04240    1.000
    H19      H        0.68910    0.67680    0.99730    1.000
    O7       O        0.81630    0.37500    0.19600    1.000
    C26      C        0.64830    0.61380    0.91970    1.000
    C27      C        0.61800    0.63480    0.72700    1.000
    H20      H        0.62270    0.66860    0.68170    1.000
    C28      C        0.58070    0.60730    0.59800    1.000
    H21      H        0.56070    0.62250    0.47030    1.000
    C29      C        0.57370    0.55670    0.66400    1.000
    H22      H        0.54900    0.53750    0.57930    1.000
    C30      C        0.60400    0.53540    0.85600    1.000
    H23      H        0.59940    0.50160    0.90100    1.000
    C31      C        0.64120    0.56320    0.98470    1.000
    C32      C        0.67080    0.54090    0.17670    1.000
    H24      H        0.66680    0.50700    0.22030    1.000
    C33      C        0.70650    0.57070    0.30200    1.000
    C34      C        0.75760    0.51400    0.60600    1.000
    C35      C        0.78370    0.42360    0.83300    1.000
    C36      C        0.77910    0.51280    0.85400    1.000
    H25      H        0.78460    0.54300    0.94340    1.000
    C37      C        0.79250    0.46780    0.97200    1.000
    H26      H        0.80690    0.46710    0.13880    1.000
    C38      C        0.76230    0.42320    0.58600    1.000
    H27      H        0.75650    0.39300    0.49670    1.000
    C39      C        0.74960    0.46900    0.47500    1.000
    H28      H        0.73530    0.46970    0.30800    1.000
    C40      C        0.79760    0.37340    0.95700    1.000
    O8       O        0.84270    0.36840    0.03400    1.000
    C41      C        0.80710    0.50560    0.67600    1.000
    H29      H        0.83120    0.53060    0.64600    1.000
    C42      C        0.82170    0.45970    0.79100    1.000
    H30      H        0.85520    0.45360    0.83870    1.000
    C43      C        0.73250    0.42900    0.76500    1.000
    H31      H        0.70820    0.40410    0.79250    1.000
    C44      C        0.72200    0.47620    0.65300    1.000
    H32      H        0.68870    0.48290    0.60560    1.000
    Zn3      Zn       0.72672    0.78564    0.89840    1.000
    O9       O        0.77980    0.74790    0.07070    1.000
    H33      H        0.80070    0.73680    0.95770    1.000
    N5       N        0.74680    0.85790    0.88100    1.000
    C45      C        0.73020    0.89390    0.03400    1.000
    H34      H        0.70430    0.89020    0.15630    1.000
    N6       N        0.75600    0.93750    0.98960    1.000
    C46      C        0.78520    0.87910    0.73330    1.000
    O10      O        0.72360    0.16590    0.38800    1.000
    C47      C        0.81520    0.85710    0.54240    1.000
    H35      H        0.81090    0.82320    0.49730    1.000
    O11      O        0.68370    0.12500    0.69600    1.000
    C48      C        0.85170    0.88620    0.41970    1.000
    C49      C        0.88200    0.86520    0.22700    1.000
    H36      H        0.87730    0.83140    0.18170    1.000
    C50      C        0.91930    0.89270    0.09800    1.000
    H37      H        0.93930    0.87750    0.97030    1.000
    C51      C        0.92630    0.94330    0.16400    1.000
    H38      H        0.95100    0.96250    0.07930    1.000
    C52      C        0.89600    0.96460    0.35600    1.000
    H39      H        0.90060    0.99840    0.40100    1.000
    C53      C        0.85880    0.93680    0.48470    1.000
    C54      C        0.82920    0.95910    0.67670    1.000
    H40      H        0.83320    0.99300    0.72030    1.000
    C55      C        0.79350    0.92930    0.80200    1.000
    C56      C        0.74240    0.98600    0.10600    1.000
    C57      C        0.71630    0.07640    0.33300    1.000
    C58      C        0.72090    0.98720    0.35400    1.000
    H41      H        0.71540    0.95700    0.44340    1.000
    C59      C        0.70750    0.03220    0.47200    1.000
    H42      H        0.69310    0.03290    0.63880    1.000
    C60      C        0.73770    0.07680    0.08600    1.000
    H43      H        0.74350    0.10700    0.99670    1.000
    C61      C        0.75040    0.03100    0.97500    1.000
    H44      H        0.76470    0.03030    0.80800    1.000
    C62      C        0.70240    0.12660    0.45700    1.000
    O12      O        0.65730    0.13160    0.53400    1.000
    C63      C        0.69290    0.99440    0.17600    1.000
    H45      H        0.66880    0.96940    0.14600    1.000
    C64      C        0.67830    0.04030    0.29100    1.000
    H46      H        0.64480    0.04640    0.33870    1.000
    C65      C        0.76750    0.07100    0.26500    1.000
    H47      H        0.79180    0.09590    0.29250    1.000
    C66      C        0.77800    0.02380    0.15300    1.000
    H48      H        0.81130    0.01710    0.10560    1.000
    Zn4      Zn       0.22672    0.28564    0.39840    1.000
    O13      O        0.27980    0.24790    0.57070    1.000
    H49      H        0.30070    0.23680    0.45770    1.000
    N7       N        0.24680    0.35790    0.38100    1.000
    C67      C        0.23020    0.39390    0.53400    1.000
    H50      H        0.20430    0.39020    0.65630    1.000
    N8       N        0.25600    0.43750    0.48960    1.000
    C68      C        0.28520    0.37910    0.23330    1.000
    O14      O        0.22360    0.66590    0.88800    1.000
    C69      C        0.31520    0.35710    0.04240    1.000
    H51      H        0.31090    0.32320    0.99730    1.000
    O15      O        0.18370    0.62500    0.19600    1.000
    C70      C        0.35170    0.38620    0.91970    1.000
    C71      C        0.38200    0.36520    0.72700    1.000
    H52      H        0.37730    0.33140    0.68170    1.000
    C72      C        0.41930    0.39270    0.59800    1.000
    H53      H        0.43930    0.37750    0.47030    1.000
    C73      C        0.42630    0.44330    0.66400    1.000
    H54      H        0.45100    0.46250    0.57930    1.000
    C74      C        0.39600    0.46460    0.85600    1.000
    H55      H        0.40060    0.49840    0.90100    1.000
    C75      C        0.35880    0.43680    0.98470    1.000
    C76      C        0.32920    0.45910    0.17670    1.000
    H56      H        0.33320    0.49300    0.22030    1.000
    C77      C        0.29350    0.42930    0.30200    1.000
    C78      C        0.24240    0.48600    0.60600    1.000
    C79      C        0.21630    0.57640    0.83300    1.000
    C80      C        0.22090    0.48720    0.85400    1.000
    H57      H        0.21540    0.45700    0.94340    1.000
    C81      C        0.20750    0.53220    0.97200    1.000
    H58      H        0.19310    0.53290    0.13880    1.000
    C82      C        0.23770    0.57680    0.58600    1.000
    H59      H        0.24350    0.60700    0.49670    1.000
    C83      C        0.25040    0.53100    0.47500    1.000
    H60      H        0.26470    0.53030    0.30800    1.000
    C84      C        0.20240    0.62660    0.95700    1.000
    O16      O        0.15730    0.63160    0.03400    1.000
    C85      C        0.19290    0.49440    0.67600    1.000
    H61      H        0.16880    0.46940    0.64600    1.000
    C86      C        0.17830    0.54030    0.79100    1.000
    H62      H        0.14480    0.54640    0.83870    1.000
    C87      C        0.26750    0.57100    0.76500    1.000
    H63      H        0.29180    0.59590    0.79250    1.000
    C88      C        0.27800    0.52380    0.65300    1.000
    H64      H        0.31130    0.51710    0.60560    1.000
    Zn5      Zn       0.21436    0.72672    0.10160    1.000
    O17      O        0.25210    0.77980    0.92930    1.000
    H65      H        0.26320    0.80070    0.04230    1.000
    N9       N        0.14210    0.74680    0.11900    1.000
    C89      C        0.10610    0.73020    0.96600    1.000
    H66      H        0.10980    0.70430    0.84370    1.000
    N10      N        0.06250    0.75600    0.01040    1.000
    C90      C        0.12090    0.78520    0.26670    1.000
    O18      O        0.83410    0.72360    0.61200    1.000
    C91      C        0.14290    0.81520    0.45760    1.000
    H67      H        0.17680    0.81090    0.50270    1.000
    O19      O        0.87500    0.68370    0.30400    1.000
    C92      C        0.11380    0.85170    0.58030    1.000
    C93      C        0.13480    0.88200    0.77300    1.000
    H68      H        0.16860    0.87730    0.81830    1.000
    C94      C        0.10730    0.91930    0.90200    1.000
    H69      H        0.12250    0.93930    0.02970    1.000
    C95      C        0.05670    0.92630    0.83600    1.000
    H70      H        0.03750    0.95100    0.92070    1.000
    C96      C        0.03540    0.89600    0.64400    1.000
    H71      H        0.00160    0.90060    0.59900    1.000
    C97      C        0.06320    0.85880    0.51530    1.000
    C98      C        0.04090    0.82920    0.32330    1.000
    H72      H        0.00700    0.83320    0.27970    1.000
    C99      C        0.07070    0.79350    0.19800    1.000
    C100     C        0.01400    0.74240    0.89400    1.000
    C101     C        0.92360    0.71630    0.66700    1.000
    C102     C        0.01280    0.72090    0.64600    1.000
    H73      H        0.04300    0.71540    0.55660    1.000
    C103     C        0.96780    0.70750    0.52800    1.000
    H74      H        0.96710    0.69310    0.36120    1.000
    C104     C        0.92320    0.73770    0.91400    1.000
    H75      H        0.89300    0.74350    0.00330    1.000
    C105     C        0.96900    0.75040    0.02500    1.000
    H76      H        0.96970    0.76470    0.19200    1.000
    C106     C        0.87340    0.70240    0.54300    1.000
    O20      O        0.86840    0.65730    0.46600    1.000
    C107     C        0.00560    0.69290    0.82400    1.000
    H77      H        0.03060    0.66880    0.85400    1.000
    C108     C        0.95970    0.67830    0.70900    1.000
    H78      H        0.95360    0.64480    0.66130    1.000
    C109     C        0.92900    0.76750    0.73500    1.000
    H79      H        0.90410    0.79180    0.70750    1.000
    C110     C        0.97620    0.77800    0.84700    1.000
    H80      H        0.98290    0.81130    0.89440    1.000
    Zn6      Zn       0.71436    0.22672    0.60160    1.000
    O21      O        0.75210    0.27980    0.42930    1.000
    H81      H        0.76320    0.30070    0.54230    1.000
    N11      N        0.64210    0.24680    0.61900    1.000
    C111     C        0.60610    0.23020    0.46600    1.000
    H82      H        0.60980    0.20430    0.34370    1.000
    N12      N        0.56250    0.25600    0.51040    1.000
    C112     C        0.62090    0.28520    0.76670    1.000
    O22      O        0.33410    0.22360    0.11200    1.000
    C113     C        0.64290    0.31520    0.95760    1.000
    H83      H        0.67680    0.31090    0.00270    1.000
    O23      O        0.37500    0.18370    0.80400    1.000
    C114     C        0.61380    0.35170    0.08030    1.000
    C115     C        0.63480    0.38200    0.27300    1.000
    H84      H        0.66860    0.37730    0.31830    1.000
    C116     C        0.60730    0.41930    0.40200    1.000
    H85      H        0.62250    0.43930    0.52970    1.000
    C117     C        0.55670    0.42630    0.33600    1.000
    H86      H        0.53750    0.45100    0.42070    1.000
    C118     C        0.53540    0.39600    0.14400    1.000
    H87      H        0.50160    0.40060    0.09900    1.000
    C119     C        0.56320    0.35880    0.01530    1.000
    C120     C        0.54090    0.32920    0.82330    1.000
    H88      H        0.50700    0.33320    0.77970    1.000
    C121     C        0.57070    0.29350    0.69800    1.000
    C122     C        0.51400    0.24240    0.39400    1.000
    C123     C        0.42360    0.21630    0.16700    1.000
    C124     C        0.51280    0.22090    0.14600    1.000
    H89      H        0.54300    0.21540    0.05660    1.000
    C125     C        0.46780    0.20750    0.02800    1.000
    H90      H        0.46710    0.19310    0.86120    1.000
    C126     C        0.42320    0.23770    0.41400    1.000
    H91      H        0.39300    0.24350    0.50330    1.000
    C127     C        0.46900    0.25040    0.52500    1.000
    H92      H        0.46970    0.26470    0.69200    1.000
    C128     C        0.37340    0.20240    0.04300    1.000
    O24      O        0.36840    0.15730    0.96600    1.000
    C129     C        0.50560    0.19290    0.32400    1.000
    H93      H        0.53060    0.16880    0.35400    1.000
    C130     C        0.45970    0.17830    0.20900    1.000
    H94      H        0.45360    0.14480    0.16130    1.000
    C131     C        0.42900    0.26750    0.23500    1.000
    H95      H        0.40410    0.29180    0.20750    1.000
    C132     C        0.47620    0.27800    0.34700    1.000
    H96      H        0.48290    0.31130    0.39440    1.000
    Zn7      Zn       0.78564    0.27328    0.10160    1.000
    O25      O        0.74790    0.22020    0.92930    1.000
    H97      H        0.73680    0.19930    0.04230    1.000
    N13      N        0.85790    0.25320    0.11900    1.000
    C133     C        0.89390    0.26980    0.96600    1.000
    H98      H        0.89020    0.29570    0.84370    1.000
    N14      N        0.93750    0.24400    0.01040    1.000
    C134     C        0.87910    0.21480    0.26670    1.000
    O26      O        0.16590    0.27640    0.61200    1.000
    C135     C        0.85710    0.18480    0.45760    1.000
    H99      H        0.82320    0.18910    0.50270    1.000
    O27      O        0.12500    0.31630    0.30400    1.000
    C136     C        0.88620    0.14830    0.58030    1.000
    C137     C        0.86520    0.11800    0.77300    1.000
    H100     H        0.83140    0.12270    0.81830    1.000
    C138     C        0.89270    0.08070    0.90200    1.000
    H101     H        0.87750    0.06070    0.02970    1.000
    C139     C        0.94330    0.07370    0.83600    1.000
    H102     H        0.96250    0.04900    0.92070    1.000
    C140     C        0.96460    0.10400    0.64400    1.000
    H103     H        0.99840    0.09940    0.59900    1.000
    C141     C        0.93680    0.14120    0.51530    1.000
    C142     C        0.95910    0.17080    0.32330    1.000
    H104     H        0.99300    0.16680    0.27970    1.000
    C143     C        0.92930    0.20650    0.19800    1.000
    C144     C        0.98600    0.25760    0.89400    1.000
    C145     C        0.07640    0.28370    0.66700    1.000
    C146     C        0.98720    0.27910    0.64600    1.000
    H105     H        0.95700    0.28460    0.55660    1.000
    C147     C        0.03220    0.29250    0.52800    1.000
    H106     H        0.03290    0.30690    0.36120    1.000
    C148     C        0.07680    0.26230    0.91400    1.000
    H107     H        0.10700    0.25650    0.00330    1.000
    C149     C        0.03100    0.24960    0.02500    1.000
    H108     H        0.03030    0.23530    0.19200    1.000
    C150     C        0.12660    0.29760    0.54300    1.000
    O28      O        0.13160    0.34270    0.46600    1.000
    C151     C        0.99440    0.30710    0.82400    1.000
    H109     H        0.96940    0.33120    0.85400    1.000
    C152     C        0.04030    0.32170    0.70900    1.000
    H110     H        0.04640    0.35520    0.66130    1.000
    C153     C        0.07100    0.23250    0.73500    1.000
    H111     H        0.09590    0.20820    0.70750    1.000
    C154     C        0.02380    0.22200    0.84700    1.000
    H112     H        0.01710    0.18870    0.89440    1.000
    Zn8      Zn       0.28564    0.77328    0.60160    1.000
    O29      O        0.24790    0.72020    0.42930    1.000
    H113     H        0.23680    0.69930    0.54230    1.000
    N15      N        0.35790    0.75320    0.61900    1.000
    C155     C        0.39390    0.76980    0.46600    1.000
    H114     H        0.39020    0.79570    0.34370    1.000
    N16      N        0.43750    0.74400    0.51040    1.000
    C156     C        0.37910    0.71480    0.76670    1.000
    O30      O        0.66590    0.77640    0.11200    1.000
    C157     C        0.35710    0.68480    0.95760    1.000
    H115     H        0.32320    0.68910    0.00270    1.000
    O31      O        0.62500    0.81630    0.80400    1.000
    C158     C        0.38620    0.64830    0.08030    1.000
    C159     C        0.36520    0.61800    0.27300    1.000
    H116     H        0.33140    0.62270    0.31830    1.000
    C160     C        0.39270    0.58070    0.40200    1.000
    H117     H        0.37750    0.56070    0.52970    1.000
    C161     C        0.44330    0.57370    0.33600    1.000
    H118     H        0.46250    0.54900    0.42070    1.000
    C162     C        0.46460    0.60400    0.14400    1.000
    H119     H        0.49840    0.59940    0.09900    1.000
    C163     C        0.43680    0.64120    0.01530    1.000
    C164     C        0.45910    0.67080    0.82330    1.000
    H120     H        0.49300    0.66680    0.77970    1.000
    C165     C        0.42930    0.70650    0.69800    1.000
    C166     C        0.48600    0.75760    0.39400    1.000
    C167     C        0.57640    0.78370    0.16700    1.000
    C168     C        0.48720    0.77910    0.14600    1.000
    H121     H        0.45700    0.78460    0.05660    1.000
    C169     C        0.53220    0.79250    0.02800    1.000
    H122     H        0.53290    0.80690    0.86120    1.000
    C170     C        0.57680    0.76230    0.41400    1.000
    H123     H        0.60700    0.75650    0.50330    1.000
    C171     C        0.53100    0.74960    0.52500    1.000
    H124     H        0.53030    0.73530    0.69200    1.000
    C172     C        0.62660    0.79760    0.04300    1.000
    O32      O        0.63160    0.84270    0.96600    1.000
    C173     C        0.49440    0.80710    0.32400    1.000
    H125     H        0.46940    0.83120    0.35400    1.000
    C174     C        0.54030    0.82170    0.20900    1.000
    H126     H        0.54640    0.85520    0.16130    1.000
    C175     C        0.57100    0.73250    0.23500    1.000
    H127     H        0.59590    0.70820    0.20750    1.000
    C176     C        0.52380    0.72200    0.34700    1.000
    H128     H        0.51710    0.68870    0.39440    1.000
