data_functionalizedCrystal
_audit_creation_method	'EQeq! by Chris Wilmer'
_symmetry_space_group_name_H-M	'P1'
_symmetry_Int_Tables_number	1
_symmetry_cell_setting	triclinic
loop_
_symmetry_equiv_pos_as_xyz
  x,y,z
_cell_length_a	18.6427
_cell_length_b	27.5425
_cell_length_c	29.4131
_cell_angle_alpha	62.575
_cell_angle_beta	89.207
_cell_angle_gamma	70.639
loop_
_atom_site_label
_atom_site_type_symbol
_atom_site_fract_x
_atom_site_fract_y
_atom_site_fract_z
_atom_site_charge
Mof_Pr	Pr	0.6168	0.17936	0.12339	2.775
Mof_Pr	Pr	0.34176	0.23553	0.12264	2.679
Mof_Pr	Pr	0.44105	0.35343	0.97827	2.898
Mof_Pr	Pr	0.47538	0.34825	0.14244	2.755
Mof_Pr	Pr	0.90192	0.24727	0.60935	2.75
Mof_Pr	Pr	0.75108	0.41346	0.4464	2.901
Mof_Pr	Pr	0.95093	0.42462	0.5354	2.722
Mof_Pr	Pr	0.71897	0.42282	0.60578	3.054
Mof_Sb	Sb	0.65385	0.2928	0.00678	0.521
Mof_Sb	Sb	0.68099	0.28689	0.13236	0.553
Mof_Sb	Sb	0.60696	0.19794	0.24068	0.533
Mof_Sb	Sb	0.50594	0.11305	0.22577	0.559
Mof_Sb	Sb	0.48049	0.11752	0.10156	0.544
Mof_Sb	Sb	0.55349	0.20744	0.99092	0.552
Mof_Sb	Sb	0.55204	0.41895	0.02147	0.443
Mof_Sb	Sb	0.40066	0.24082	0.24009	0.561
Mof_Sb	Sb	0.34762	0.24805	0.99208	0.554
Mof_Sb	Sb	0.34103	0.46347	0.01931	0.45
Mof_Sb	Sb	0.2672	0.37457	0.12884	0.565
Mof_Sb	Sb	0.24131	0.37739	0.00602	0.559
Mof_Sb	Sb	0.05761	0.2849	0.54102	0.531
Mof_Sb	Sb	0.86254	0.28497	0.71492	0.536
Mof_Sb	Sb	0.70992	0.27531	0.6476	0.546
Mof_Sb	Sb	0.73078	0.27067	0.52699	0.526
Mof_Sb	Sb	0.94814	0.40748	0.41715	0.555
Mof_Sb	Sb	0.80849	0.53998	0.41654	0.578
Mof_Sb	Sb	0.89711	0.42046	0.66062	0.588
Mof_Sb	Sb	0.63442	0.53782	0.46934	0.547
Mof_Sb	Sb	0.59452	0.39919	0.52743	0.603
Mof_Sb	Sb	0.90797	0.27262	0.47287	0.557
Mof_Sb	Sb	0.7864	0.54866	0.5337	0.543
Mof_Sb	Sb	0.0369	0.29273	0.6591	0.547
Mof_Cl	Cl	0.46735	0.27829	0.09178	-1.178
Mof_Cl	Cl	0.72494	0.15599	0.05242	-0.529
Mof_Cl	Cl	0.75712	0.15368	0.19179	-0.538
Mof_Cl	Cl	0.36437	0.10658	0.17639	-0.537
Mof_Cl	Cl	0.20814	0.25108	0.06277	-0.566
Mof_Cl	Cl	0.23551	0.25123	0.19217	-0.559
Mof_Cl	Cl	0.42012	0.48082	0.91931	-0.584
Mof_Cl	Cl	0.82876	0.37856	0.54893	-1.218
Mof_Cl	Cl	0.89515	0.16376	0.57402	-0.546
Mof_Cl	Cl	0.86941	0.16684	0.70912	-0.543
Mof_Cl	Cl	0.5862	0.4917	0.4023	-0.475
Mof_Cl	Cl	0.99148	0.504	0.56001	-0.796
Mof_Cl	Cl	0.11791	0.35851	0.57766	-0.606
Mof_Cl	Cl	0.5487	0.4846	0.5721	-1.227
Mof_O 	O 	0.5713	0.259	0.01622	-0.597
Mof_O 	O 	0.6661	0.25874	0.08297	-0.568
Mof_O 	O 	0.6029	0.2527	0.16571	-0.588
Mof_O 	O 	0.5859	0.14888	0.21429	-0.535
Mof_O 	O 	0.4991	0.14578	0.1494	-0.567
Mof_O 	O 	0.5531	0.15582	0.06534	-0.54
Mof_O 	O 	0.5629	0.36354	0.99485	-0.567
Mof_O 	O 	0.587	0.3604	0.09599	-0.551
Mof_O 	O 	0.4994	0.254	0.22588	-0.53
Mof_O 	O 	0.4207	0.18896	0.20713	-0.571
Mof_O 	O 	0.3903	0.19124	0.06672	-0.554
Mof_O 	O 	0.4446	0.26298	0.97512	-0.545
Mof_O 	O 	0.4512	0.40816	0.0385	-0.606
Mof_O 	O 	0.3642	0.30496	0.16636	-0.567
Mof_O 	O 	0.3308	0.30668	0.01682	-0.572
Mof_O 	O 	0.322	0.41205	0.99536	-0.55
Mof_O 	O 	0.3398	0.41237	0.09391	-0.553
Mof_O 	O 	0.2652	0.34008	0.08297	-0.567
Mof_O 	O 	0.9703	0.262	0.5349	-0.559
Mof_O 	O 	0.9975	0.3054	0.59075	-0.601
Mof_O 	O 	0.9485	0.265	0.6786	-0.533
Mof_O 	O 	0.7961	0.3011	0.6531	-0.588
Mof_O 	O 	0.7661	0.2578	0.5961	-0.559
Mof_O 	O 	0.8179	0.2983	0.5052	-0.583
Mof_O 	O 	0.6729	0.3555	0.5004	-0.554
Mof_O 	O 	0.8825	0.3593	0.4323	-0.532
Mof_O 	O 	0.8679	0.4542	0.44166	-0.576
Mof_O 	O 	0.6562	0.4504	0.5075	-0.56
Mof_O 	O 	0.72	0.5135	0.43473	-0.557
Mof_O 	O 	0.9998	0.36864	0.49112	-0.58
Mof_O 	O 	0.9706	0.3774	0.63073	-0.566
Mof_O 	O 	0.8393	0.4652	0.5886	-0.571
Mof_O 	O 	0.8434	0.5167	0.48931	-0.59
Mof_O 	O 	0.833	0.3722	0.6748	-0.585
Mof_O 	O 	0.6581	0.3596	0.5969	-0.56
Mof_O 	O 	0.7027	0.5209	0.5307	-0.583
Mof_S 	S 	0.75936	0.91948	0.28341	0.068
Mof_O 	O 	0.6727	0.07699	0.16621	-0.606
Mof_O 	O 	0.6132	0.0219	0.2219	-0.342
Mof_O 	O 	0.9731	0.8297	0.352	-0.585
Mof_O 	O 	0.875	0.8016	0.3495	-0.352
Mof_C 	C 	0.672	0.0327	0.2066	0.447
Mof_C 	C 	0.7486	0.9894	0.2382	-0.127
Mof_C 	C 	0.8169	0.998	0.2373	0.002
Mof_H 	H 	0.8222	0.0344	0.2151	0.059
Mof_C 	C 	0.8781	0.9474	0.2725	0.011
Mof_H 	H 	0.9295	0.9457	0.2766	0.05
Mof_C 	C 	0.8559	0.9015	0.2999	-0.129
Mof_C 	C 	0.9062	0.8392	0.3377	0.45
Mof_C 	C 	0.3702	0.3776	0.2293	0.673
Mof_C 	C 	0.3518	0.4108	0.25911	-0.213
Mof_C 	C 	0.3202	0.4632	0.3086	-0.103
Mof_S 	S 	0.3162	0.39557	0.3145	0.106
Mof_O 	O 	0.3971	0.3902	0.1913	-0.346
Mof_O 	O 	0.3605	0.3277	0.2585	-0.313
Mof_O 	O 	0.2899	0.5161	0.3535	0.102
Mof_O 	O 	0.2655	0.4338	0.3926	0.062
Mof_C 	C 	0.3647	0.4633	0.2405	0.105
Mof_H 	H 	0.3849	0.4779	0.2091	-0.014
Mof_C 	C 	0.3482	0.494	0.2678	-0.144
Mof_H 	H 	0.3553	0.5297	0.2593	0.071
Mof_C 	C 	0.2903	0.4689	0.3569	-0.931
Mof_S 	S 	0.72306	0.29835	0.31362	0.079
Mof_O 	O 	0.5672	0.35	0.198	-0.591
Mof_O 	O 	0.6827	0.2805	0.2273	-0.356
Mof_O 	O 	0.8016	0.29	0.4061	-0.374
Mof_O 	O 	0.7159	0.3701	0.4013	-0.613
Mof_C 	C 	0.6301	0.3227	0.2267	0.467
Mof_C 	C 	0.6451	0.341	0.265	-0.137
Mof_C 	C 	0.5994	0.3898	0.2678	-0.002
Mof_H 	H 	0.5531	0.4187	0.2447	0.033
Mof_C 	C 	0.6316	0.3903	0.3102	0.015
Mof_H 	H 	0.6082	0.421	0.3183	0.034
Mof_C 	C 	0.6963	0.346	0.3384	-0.143
Mof_C 	C 	0.7426	0.3329	0.387	0.494
Mof_S 	S 	0.7689	0.5752	0.21745	0.116
Mof_O 	O 	0.7513	0.4849	0.3566	-0.229
Mof_O 	O 	0.8625	0.486	0.3285	-0.241
Mof_O 	O 	0.6645	0.6079	0.0872	-0.367
Mof_O 	O 	0.7293	0.6568	0.1	-0.265
Mof_C 	C 	0.7897	0.5016	0.3213	0.229
Mof_C 	C 	0.7438	0.5233	0.268	-0.051
Mof_C 	C 	0.6865	0.5127	0.2493	0.041
Mof_H 	H 	0.6641	0.4856	0.2712	0.02
Mof_C 	C 	0.6644	0.5449	0.1958	0.047
Mof_H 	H 	0.6257	0.5425	0.1772	0.017
Mof_C 	C 	0.7053	0.5804	0.1732	-0.034
Mof_C 	C 	0.7018	0.6173	0.1154	0.302
Mof_S 	S 	0.6317	0.3099	0.81742	-0.013
Mof_O 	O 	0.662	0.3954	0.6745	-0.616
Mof_O 	O 	0.7106	0.2994	0.733	-0.305
Mof_O 	O 	0.5006	0.3665	0.902	-0.716
Mof_O 	O 	0.5856	0.2794	0.915	-0.23
Mof_C 	C 	0.6614	0.3507	0.7145	-0.47
Mof_C 	C 	0.6172	0.3646	0.7548	0.131
Mof_C 	C 	0.567	0.4138	0.7497	-0.115
Mof_H 	H 	0.5522	0.4488	0.7171	0.101
Mof_C 	C 	0.5366	0.4142	0.7917	-0.041
Mof_H 	H 	0.5001	0.4475	0.7922	0.05
Mof_C 	C 	0.5672	0.3584	0.8335	0.06
Mof_C 	C 	0.5528	0.3342	0.8903	-0.314
Mof_O 	O 	0.6149	0.4704	0.3952	0.026
Mof_O 	O 	0.5631	0.504	0.5768	0.668
Mof_S 	S 	0.2722	0.4483	0.2716	0.052
Mof_O 	O 	0.427	0.372	0.2068	-0.339
Mof_O 	O 	0.3035	0.3841	0.2113	-0.309
Mof_O 	O 	0.3106	0.5227	0.3504	-0.869
Mof_O 	O 	0.2052	0.5129	0.3262	-0.539
Mof_C 	C 	0.4143	0.4125	0.2829	-0.049
Mof_H 	H 	0.4656	0.3934	0.28	0.045
Mof_C 	C 	0.3993	0.4429	0.3109	0.067
Mof_H 	H 	0.436	0.4486	0.3282	0.023
Mof_C 	C 	0.2762	0.5021	0.332	1.408
Mof_S 	S 	0.8017	0.5443	0.2146	-0.042
Mof_O 	O 	0.7486	0.4611	0.3571	-0.37
Mof_O 	O 	0.7993	0.5305	0.3307	-0.287
Mof_O 	O 	0.6475	0.6217	0.0914	-0.219
Mof_O 	O 	0.775	0.5957	0.0954	-0.234
Mof_C 	C 	0.7803	0.493	0.3252	0.248
Mof_C 	C 	0.7525	0.5269	0.266	-0.029
Mof_C 	C 	0.6757	0.5359	0.2572	-0.056
Mof_H 	H 	0.6407	0.5286	0.281	0.061
Mof_C 	C 	0.6642	0.5584	0.2042	-0.071
Mof_H 	H 	0.614	0.5688	0.1876	0.042
Mof_C 	C 	0.7196	0.567	0.1736	-0.054
Mof_C 	C 	0.7151	0.5969	0.1151	0.176
Mof_Cl	Cl	0.537	0.3416	0.8991	0.624
Mof_Cl	Cl	0.6741	0.3496	0.7078	0.69
Mof_Pr	Pr	0.3832	0.82064	0.87661	2.776
Mof_Pr	Pr	0.65824	0.76447	0.87736	2.68
Mof_Pr	Pr	0.55895	0.64657	0.02173	2.899
Mof_Pr	Pr	0.52462	0.65175	0.85756	2.756
Mof_Pr	Pr	0.09808	0.75273	0.39065	2.751
Mof_Pr	Pr	0.24892	0.58654	0.5536	2.902
Mof_Pr	Pr	0.04907	0.57538	0.4646	2.723
Mof_Pr	Pr	0.28103	0.57718	0.39423	3.055
Mof_Sb	Sb	0.34615	0.7072	0.99322	0.522
Mof_Sb	Sb	0.31901	0.71311	0.86764	0.553
Mof_Sb	Sb	0.39304	0.80206	0.75932	0.533
Mof_Sb	Sb	0.49406	0.88695	0.77423	0.559
Mof_Sb	Sb	0.51951	0.88248	0.89844	0.544
Mof_Sb	Sb	0.44651	0.79256	0.00908	0.552
Mof_Sb	Sb	0.44796	0.58105	0.97853	0.443
Mof_Sb	Sb	0.59934	0.75918	0.75991	0.561
Mof_Sb	Sb	0.65238	0.75195	0.00792	0.554
Mof_Sb	Sb	0.65897	0.53653	0.98069	0.45
Mof_Sb	Sb	0.7328	0.62543	0.87116	0.565
Mof_Sb	Sb	0.75869	0.62261	0.99398	0.559
Mof_Sb	Sb	0.94239	0.7151	0.45898	0.531
Mof_Sb	Sb	0.13746	0.71503	0.28508	0.536
Mof_Sb	Sb	0.29008	0.72469	0.3524	0.546
Mof_Sb	Sb	0.26922	0.72933	0.47301	0.526
Mof_Sb	Sb	0.05186	0.59252	0.58285	0.555
Mof_Sb	Sb	0.19151	0.46002	0.58346	0.578
Mof_Sb	Sb	0.10289	0.57954	0.33938	0.588
Mof_Sb	Sb	0.36558	0.46218	0.53066	0.547
Mof_Sb	Sb	0.40548	0.60081	0.47257	0.603
Mof_Sb	Sb	0.09203	0.72738	0.52713	0.557
Mof_Sb	Sb	0.2136	0.45134	0.4663	0.543
Mof_Sb	Sb	0.9631	0.70727	0.3409	0.547
Mof_Cl	Cl	0.53265	0.72171	0.90822	-1.178
Mof_Cl	Cl	0.27506	0.84401	0.94758	-0.529
Mof_Cl	Cl	0.24288	0.84632	0.80821	-0.538
Mof_Cl	Cl	0.63563	0.89342	0.82361	-0.537
Mof_Cl	Cl	0.79186	0.74892	0.93723	-0.566
Mof_Cl	Cl	0.76449	0.74877	0.80783	-0.559
Mof_Cl	Cl	0.57988	0.51918	0.08069	-0.584
Mof_Cl	Cl	0.17124	0.62144	0.45107	-1.218
Mof_Cl	Cl	0.10485	0.83624	0.42598	-0.546
Mof_Cl	Cl	0.13059	0.83316	0.29088	-0.543
Mof_Cl	Cl	0.4138	0.5083	0.5977	-0.475
Mof_Cl	Cl	0.00852	0.496	0.43999	-0.796
Mof_Cl	Cl	0.88209	0.64149	0.42234	-0.606
Mof_Cl	Cl	0.4513	0.5154	0.4279	-1.227
Mof_O 	O 	0.4287	0.741	0.98378	-0.597
Mof_O 	O 	0.3339	0.74126	0.91703	-0.568
Mof_O 	O 	0.3971	0.7473	0.83429	-0.588
Mof_O 	O 	0.4141	0.85112	0.78571	-0.535
Mof_O 	O 	0.5009	0.85422	0.8506	-0.567
Mof_O 	O 	0.4469	0.84418	0.93466	-0.54
Mof_O 	O 	0.4371	0.63646	0.00515	-0.567
Mof_O 	O 	0.413	0.6396	0.90401	-0.551
Mof_O 	O 	0.5006	0.746	0.77412	-0.53
Mof_O 	O 	0.5793	0.81104	0.79287	-0.571
Mof_O 	O 	0.6097	0.80876	0.93328	-0.554
Mof_O 	O 	0.5554	0.73702	0.02488	-0.545
Mof_O 	O 	0.5488	0.59184	0.9615	-0.606
Mof_O 	O 	0.6358	0.69504	0.83364	-0.567
Mof_O 	O 	0.6692	0.69332	0.98318	-0.572
Mof_O 	O 	0.678	0.58795	0.00464	-0.55
Mof_O 	O 	0.6602	0.58763	0.90609	-0.553
Mof_O 	O 	0.7348	0.65992	0.91703	-0.567
Mof_O 	O 	0.0297	0.738	0.4651	-0.559
Mof_O 	O 	0.0025	0.6946	0.40925	-0.601
Mof_O 	O 	0.0515	0.735	0.3214	-0.533
Mof_O 	O 	0.2039	0.6989	0.3469	-0.588
Mof_O 	O 	0.2339	0.7422	0.4039	-0.559
Mof_O 	O 	0.1821	0.7017	0.4948	-0.583
Mof_O 	O 	0.3271	0.6445	0.4996	-0.554
Mof_O 	O 	0.1175	0.6407	0.5677	-0.532
Mof_O 	O 	0.1321	0.5458	0.55834	-0.576
Mof_O 	O 	0.3438	0.5496	0.4925	-0.56
Mof_O 	O 	0.28	0.4865	0.56527	-0.557
Mof_O 	O 	0.0002	0.63136	0.50888	-0.58
Mof_O 	O 	0.0294	0.6226	0.36927	-0.566
Mof_O 	O 	0.1607	0.5348	0.4114	-0.571
Mof_O 	O 	0.1566	0.4833	0.51069	-0.59
Mof_O 	O 	0.167	0.6278	0.3252	-0.585
Mof_O 	O 	0.3419	0.6404	0.4031	-0.56
Mof_O 	O 	0.2973	0.4791	0.4693	-0.583
Mof_S 	S 	0.24064	0.08052	0.71659	0.068
Mof_O 	O 	0.3273	0.92301	0.83379	-0.606
Mof_O 	O 	0.3868	0.9781	0.7781	-0.342
Mof_O 	O 	0.0269	0.1703	0.648	-0.585
Mof_O 	O 	0.125	0.1984	0.6505	-0.352
Mof_C 	C 	0.328	0.9673	0.7934	0.447
Mof_C 	C 	0.2514	0.0106	0.7618	-0.127
Mof_C 	C 	0.1831	0.002	0.7627	0.002
Mof_H 	H 	0.1778	0.9656	0.7849	0.059
Mof_C 	C 	0.1219	0.0526	0.7275	0.011
Mof_H 	H 	0.0705	0.0543	0.7234	0.05
Mof_C 	C 	0.1441	0.0985	0.7001	-0.129
Mof_C 	C 	0.0938	0.1608	0.6623	0.45
Mof_C 	C 	0.6298	0.6224	0.7707	0.673
Mof_C 	C 	0.6482	0.5892	0.74089	-0.213
Mof_C 	C 	0.6798	0.5368	0.6914	-0.103
Mof_S 	S 	0.6838	0.60443	0.6855	0.106
Mof_O 	O 	0.6029	0.6098	0.8087	-0.346
Mof_O 	O 	0.6395	0.6723	0.7415	-0.313
Mof_O 	O 	0.7101	0.4839	0.6465	0.102
Mof_O 	O 	0.7345	0.5662	0.6074	0.062
Mof_C 	C 	0.6353	0.5367	0.7595	0.105
Mof_H 	H 	0.6151	0.5221	0.7909	-0.014
Mof_C 	C 	0.6518	0.506	0.7322	-0.144
Mof_H 	H 	0.6447	0.4703	0.7407	0.071
Mof_C 	C 	0.7097	0.5311	0.6431	-0.931
Mof_S 	S 	0.27694	0.70165	0.68638	0.079
Mof_O 	O 	0.4328	0.65	0.802	-0.591
Mof_O 	O 	0.3173	0.7195	0.7727	-0.356
Mof_O 	O 	0.1984	0.71	0.5939	-0.374
Mof_O 	O 	0.2841	0.6299	0.5987	-0.613
Mof_C 	C 	0.3699	0.6773	0.7733	0.467
Mof_C 	C 	0.3549	0.659	0.735	-0.137
Mof_C 	C 	0.4006	0.6102	0.7322	-0.002
Mof_H 	H 	0.4469	0.5813	0.7553	0.033
Mof_C 	C 	0.3684	0.6097	0.6898	0.015
Mof_H 	H 	0.3918	0.579	0.6817	0.034
Mof_C 	C 	0.3037	0.654	0.6616	-0.143
Mof_C 	C 	0.2574	0.6671	0.613	0.494
Mof_S 	S 	0.2311	0.4248	0.78255	0.116
Mof_O 	O 	0.2487	0.5151	0.6434	-0.229
Mof_O 	O 	0.1375	0.514	0.6715	-0.241
Mof_O 	O 	0.3355	0.3921	0.9128	-0.367
Mof_O 	O 	0.2707	0.3432	0.9	-0.265
Mof_C 	C 	0.2103	0.4984	0.6787	0.229
Mof_C 	C 	0.2562	0.4767	0.732	-0.051
Mof_C 	C 	0.3135	0.4873	0.7507	0.041
Mof_H 	H 	0.3359	0.5144	0.7288	0.02
Mof_C 	C 	0.3356	0.4551	0.8042	0.047
Mof_H 	H 	0.3743	0.4575	0.8228	0.017
Mof_C 	C 	0.2947	0.4196	0.8268	-0.034
Mof_C 	C 	0.2982	0.3827	0.8846	0.302
Mof_S 	S 	0.3683	0.6901	0.18258	-0.013
Mof_O 	O 	0.338	0.6046	0.3255	-0.616
Mof_O 	O 	0.2894	0.7006	0.267	-0.305
Mof_O 	O 	0.4994	0.6335	0.098	-0.716
Mof_O 	O 	0.4144	0.7206	0.085	-0.23
Mof_C 	C 	0.3386	0.6493	0.2855	-0.47
Mof_C 	C 	0.3828	0.6354	0.2452	0.131
Mof_C 	C 	0.433	0.5862	0.2503	-0.115
Mof_H 	H 	0.4478	0.5512	0.2829	0.101
Mof_C 	C 	0.4634	0.5858	0.2083	-0.041
Mof_H 	H 	0.4999	0.5525	0.2078	0.05
Mof_C 	C 	0.4328	0.6416	0.1665	0.06
Mof_C 	C 	0.4472	0.6658	0.1097	-0.314
Mof_O 	O 	0.3851	0.5296	0.6048	0.026
Mof_O 	O 	0.4369	0.496	0.4232	0.668
Mof_S 	S 	0.7278	0.5517	0.7284	0.052
Mof_O 	O 	0.573	0.628	0.7932	-0.339
Mof_O 	O 	0.6965	0.6159	0.7887	-0.309
Mof_O 	O 	0.6894	0.4773	0.6496	-0.869
Mof_O 	O 	0.7948	0.4871	0.6738	-0.539
Mof_C 	C 	0.5857	0.5875	0.7171	-0.049
Mof_H 	H 	0.5344	0.6066	0.72	0.045
Mof_C 	C 	0.6007	0.5571	0.6891	0.067
Mof_H 	H 	0.564	0.5514	0.6718	0.023
Mof_C 	C 	0.7238	0.4979	0.668	1.409
Mof_S 	S 	0.1983	0.4557	0.7854	-0.042
Mof_O 	O 	0.2514	0.5389	0.6429	-0.37
Mof_O 	O 	0.2007	0.4695	0.6693	-0.287
Mof_O 	O 	0.3525	0.3783	0.9086	-0.219
Mof_O 	O 	0.225	0.4043	0.9046	-0.234
Mof_C 	C 	0.2197	0.507	0.6748	0.248
Mof_C 	C 	0.2475	0.4731	0.734	-0.029
Mof_C 	C 	0.3243	0.4641	0.7428	-0.056
Mof_H 	H 	0.3593	0.4714	0.719	0.061
Mof_C 	C 	0.3358	0.4416	0.7958	-0.071
Mof_H 	H 	0.386	0.4312	0.8124	0.042
Mof_C 	C 	0.2804	0.433	0.8264	-0.054
Mof_C 	C 	0.2849	0.4031	0.8849	0.176
Mof_Cl	Cl	0.463	0.6584	0.1009	0.624
Mof_Cl	Cl	0.3259	0.6504	0.2922	0.69
_end
