data_functionalizedCrystal
_audit_creation_method	'EQeq! by Chris Wilmer'
_symmetry_space_group_name_H-M	'P1'
_symmetry_Int_Tables_number	1
_symmetry_cell_setting	triclinic
loop_
_symmetry_equiv_pos_as_xyz
  x,y,z
_cell_length_a	7.111
_cell_length_b	19.4549
_cell_length_c	19.4549
_cell_angle_alpha	88.086
_cell_angle_beta	79.4698
_cell_angle_gamma	79.4697
loop_
_atom_site_label
_atom_site_type_symbol
_atom_site_fract_x
_atom_site_fract_y
_atom_site_fract_z
_atom_site_charge
Mof_Cu	Cu	0.875	0.0502	0.4498	0.841
Mof_Cu	Cu	0.375	0.9498	0.5502	0.842
Mof_Cu	Cu	0.6752	0.4498	0.9498	0.842
Mof_Cu	Cu	0.0748	0.5502	0.0502	0.843
Mof_H 	H 	0.8505	0.2076	0.4258	-0.017
Mof_H 	H 	0.6131	0.3096	0.4428	0.08
Mof_H 	H 	0.2113	0.1888	0.4972	0.088
Mof_H 	H 	0.45	0.0898	0.4764	-0.034
Mof_H 	H 	0.0495	0.2822	0.5608	0.03
Mof_H 	H 	0.7969	0.3762	0.574	0.068
Mof_H 	H 	0.0936	0.475	0.416	0.066
Mof_H 	H 	0.3459	0.38	0.4008	0.034
Mof_H 	H 	0.4839	0.7924	0.5742	-0.015
Mof_H 	H 	0.3655	0.6904	0.5572	0.08
Mof_H 	H 	0.8973	0.8112	0.5028	0.084
Mof_H 	H 	0.0162	0.9102	0.5236	-0.033
Mof_H 	H 	0.8925	0.7178	0.4392	0.033
Mof_H 	H 	0.7471	0.6238	0.426	0.066
Mof_H 	H 	0.9846	0.525	0.584	0.066
Mof_H 	H 	0.1267	0.62	0.5992	0.034
Mof_H 	H 	0.7237	0.4258	0.7924	-0.016
Mof_H 	H 	0.9441	0.4428	0.6904	0.082
Mof_H 	H 	0.2915	0.4972	0.8112	0.088
Mof_H 	H 	0.0736	0.4764	0.9102	-0.035
Mof_H 	H 	0.3897	0.5608	0.7178	0.031
Mof_H 	H 	0.6291	0.574	0.6238	0.067
Mof_H 	H 	0.4904	0.416	0.525	0.066
Mof_H 	H 	0.2533	0.4008	0.62	0.034
Mof_H 	H 	0.9419	0.5742	0.2076	-0.015
Mof_H 	H 	0.0773	0.5572	0.3096	0.082
Mof_H 	H 	0.5999	0.5028	0.1888	0.087
Mof_H 	H 	0.4602	0.5236	0.0898	-0.034
Mof_H 	H 	0.6683	0.4392	0.2822	0.032
Mof_H 	H 	0.8269	0.426	0.3762	0.066
Mof_H 	H 	0.4314	0.584	0.475	0.066
Mof_H 	H 	0.2741	0.5992	0.38	0.034
Mof_H 	H 	0.8995	0.0742	0.2924	-0.02
Mof_H 	H 	0.1369	0.0572	0.1904	0.083
Mof_H 	H 	0.5387	0.0028	0.3112	0.088
Mof_H 	H 	0.3	0.0236	0.4102	-0.034
Mof_H 	H 	0.7005	0.9392	0.2178	0.033
Mof_H 	H 	0.9531	0.926	0.1238	0.066
Mof_H 	H 	0.6564	0.084	0.025	0.065
Mof_H 	H 	0.4041	0.0992	0.12	0.035
Mof_H 	H 	0.2661	0.9258	0.7076	-0.015
Mof_H 	H 	0.3845	0.9428	0.8096	0.081
Mof_H 	H 	0.8527	0.9972	0.6888	0.086
Mof_H 	H 	0.7338	0.9764	0.5898	-0.036
Mof_H 	H 	0.8575	0.0608	0.7822	0.03
Mof_H 	H 	0.0029	0.074	0.8762	0.07
Mof_H 	H 	0.7654	0.916	0.975	0.063
Mof_H 	H 	0.6233	0.9008	0.88	0.034
Mof_H 	H 	0.0263	0.7076	0.0742	-0.015
Mof_H 	H 	0.8059	0.8096	0.0572	0.081
Mof_H 	H 	0.4585	0.6888	0.0028	0.088
Mof_H 	H 	0.6764	0.5898	0.0236	-0.034
Mof_H 	H 	0.3603	0.7822	0.9392	0.033
Mof_H 	H 	0.1209	0.8762	0.926	0.065
Mof_H 	H 	0.2596	0.975	0.084	0.063
Mof_H 	H 	0.4967	0.88	0.0992	0.035
Mof_H 	H 	0.8081	0.2924	0.9258	-0.016
Mof_H 	H 	0.6727	0.1904	0.9428	0.08
Mof_H 	H 	0.1501	0.3112	0.9972	0.087
Mof_H 	H 	0.2898	0.4102	0.9764	-0.035
Mof_H 	H 	0.0817	0.2178	0.0608	0.034
Mof_H 	H 	0.9231	0.1238	0.074	0.062
Mof_H 	H 	0.3186	0.025	0.916	0.065
Mof_H 	H 	0.4759	0.12	0.9008	0.035
Mof_C 	C 	0.7184	0.204	0.4424	0.081
Mof_C 	C 	0.5769	0.265	0.451	-0.156
Mof_C 	C 	0.385	0.2592	0.4714	0.104
Mof_C 	C 	0.3429	0.1939	0.4823	-0.163
Mof_C 	C 	0.4852	0.1347	0.4723	0.088
Mof_C 	C 	0.2225	0.3205	0.4793	-0.047
Mof_C 	C 	0.0577	0.3213	0.5307	-0.001
Mof_C 	C 	0.9075	0.3771	0.5385	-0.11
Mof_C 	C 	0.9147	0.4353	0.4949	0.064
Mof_C 	C 	0.0833	0.4349	0.4449	-0.097
Mof_C 	C 	0.2345	0.379	0.436	-0.007
Mof_C 	C 	0.3648	0.796	0.5576	0.08
Mof_C 	C 	0.2929	0.735	0.549	-0.153
Mof_C 	C 	0.1156	0.7408	0.5286	0.099
Mof_C 	C 	0.0191	0.8061	0.5177	-0.155
Mof_C 	C 	0.0922	0.8653	0.5277	0.084
Mof_C 	C 	0.0223	0.6795	0.5207	-0.042
Mof_C 	C 	0.9097	0.6787	0.4693	-0.01
Mof_C 	C 	0.8231	0.6229	0.4615	-0.104
Mof_C 	C 	0.8449	0.5647	0.5051	0.064
Mof_C 	C 	0.9631	0.5651	0.5551	-0.1
Mof_C 	C 	0.0495	0.621	0.564	-0.007
Mof_C 	C 	0.8392	0.4424	0.796	0.083
Mof_C 	C 	0.9721	0.451	0.735	-0.159
Mof_C 	C 	0.1436	0.4714	0.7408	0.107
Mof_C 	C 	0.1748	0.4823	0.8061	-0.165
Mof_C 	C 	0.0425	0.4723	0.8653	0.09
Mof_C 	C 	0.2982	0.4793	0.6795	-0.047
Mof_C 	C 	0.4116	0.5307	0.6787	-0.005
Mof_C 	C 	0.554	0.5385	0.6229	-0.106
Mof_C 	C 	0.5904	0.4949	0.5647	0.065
Mof_C 	C 	0.4718	0.4449	0.5651	-0.099
Mof_C 	C 	0.3295	0.436	0.621	-0.007
Mof_C 	C 	0.0776	0.5576	0.204	0.082
Mof_C 	C 	0.1581	0.549	0.265	-0.155
Mof_C 	C 	0.3558	0.5286	0.2592	0.103
Mof_C 	C 	0.4632	0.5177	0.1939	-0.163
Mof_C 	C 	0.3801	0.5277	0.1347	0.088
Mof_C 	C 	0.457	0.5207	0.3205	-0.046
Mof_C 	C 	0.621	0.4693	0.3213	-0.006
Mof_C 	C 	0.7154	0.4615	0.3771	-0.105
Mof_C 	C 	0.65	0.5051	0.4353	0.065
Mof_C 	C 	0.4818	0.5551	0.4349	-0.098
Mof_C 	C 	0.3865	0.564	0.379	-0.008
Mof_C 	C 	0.0316	0.0576	0.296	0.09
Mof_C 	C 	0.1731	0.049	0.235	-0.158
Mof_C 	C 	0.365	0.0286	0.2408	0.104
Mof_C 	C 	0.4071	0.0177	0.3061	-0.163
Mof_C 	C 	0.2648	0.0277	0.3653	0.089
Mof_C 	C 	0.5275	0.0207	0.1795	-0.042
Mof_C 	C 	0.6923	0.9693	0.1787	-0.012
Mof_C 	C 	0.8425	0.9615	0.1229	-0.103
Mof_C 	C 	0.8353	0.0051	0.0647	0.061
Mof_C 	C 	0.6667	0.0551	0.0651	-0.094
Mof_C 	C 	0.5155	0.064	0.121	-0.011
Mof_C 	C 	0.3852	0.9424	0.704	0.081
Mof_C 	C 	0.4571	0.951	0.765	-0.155
Mof_C 	C 	0.6344	0.9714	0.7592	0.103
Mof_C 	C 	0.7309	0.9823	0.6939	-0.163
Mof_C 	C 	0.6578	0.9723	0.6347	0.087
Mof_C 	C 	0.7277	0.9793	0.8205	-0.048
Mof_C 	C 	0.8403	0.0307	0.8213	-0.003
Mof_C 	C 	0.9269	0.0385	0.8771	-0.108
Mof_C 	C 	0.9051	0.9949	0.9353	0.056
Mof_C 	C 	0.7869	0.9449	0.9349	-0.095
Mof_C 	C 	0.7005	0.936	0.879	-0.01
Mof_C 	C 	0.9108	0.704	0.0576	0.082
Mof_C 	C 	0.7779	0.765	0.049	-0.154
Mof_C 	C 	0.6064	0.7592	0.0286	0.101
Mof_C 	C 	0.5752	0.6939	0.0177	-0.161
Mof_C 	C 	0.7075	0.6347	0.0277	0.087
Mof_C 	C 	0.4518	0.8205	0.0207	-0.041
Mof_C 	C 	0.3384	0.8213	0.9693	-0.012
Mof_C 	C 	0.196	0.8771	0.9615	-0.101
Mof_C 	C 	0.1596	0.9353	0.0051	0.059
Mof_C 	C 	0.2782	0.9349	0.0551	-0.093
Mof_C 	C 	0.4205	0.879	0.064	-0.012
Mof_C 	C 	0.6724	0.296	0.9424	0.08
Mof_C 	C 	0.5919	0.235	0.951	-0.155
Mof_C 	C 	0.3942	0.2408	0.9714	0.102
Mof_C 	C 	0.2868	0.3061	0.9823	-0.162
Mof_C 	C 	0.3699	0.3653	0.9723	0.087
Mof_C 	C 	0.293	0.1795	0.9793	-0.044
Mof_C 	C 	0.129	0.1787	0.0307	-0.01
Mof_C 	C 	0.0346	0.1229	0.0385	-0.093
Mof_C 	C 	0.1	0.0647	0.9949	0.056
Mof_C 	C 	0.2682	0.0651	0.9449	-0.093
Mof_C 	C 	0.3635	0.121	0.936	-0.012
Mof_C 	C 	0.75	0.5	0.5	-0.09
Mof_C 	C 	-0	0	-0	-0.075
Mof_I 	I 	0.67807	0.94693	0.44693	-0.464
Mof_I 	I 	0.07193	0.05307	0.55307	-0.454
Mof_I 	I 	0.875	0.44693	0.05307	-0.458
Mof_I 	I 	0.375	0.55307	0.94693	-0.462
Mof_N 	N 	0.6716	0.1407	0.4569	-0.242
Mof_N 	N 	0.2692	0.8593	0.5431	-0.24
Mof_N 	N 	0.8715	0.4569	0.8593	-0.243
Mof_N 	N 	0.1877	0.5431	0.1407	-0.241
Mof_N 	N 	0.0784	0.0431	0.3593	-0.241
Mof_N 	N 	0.4808	0.9569	0.6407	-0.241
Mof_N 	N 	0.8785	0.6407	0.0431	-0.241
Mof_N 	N 	0.5623	0.3593	0.9569	-0.241
_end
