data_functionalizedCrystal
_audit_creation_method	'EQeq! by Chris Wilmer'
_symmetry_space_group_name_H-M	'P1'
_symmetry_Int_Tables_number	1
_symmetry_cell_setting	triclinic
loop_
_symmetry_equiv_pos_as_xyz
  x,y,z
_cell_length_a	18.3439
_cell_length_b	8.809
_cell_length_c	23.4388
_cell_angle_alpha	90
_cell_angle_beta	101.965
_cell_angle_gamma	90
loop_
_atom_site_label
_atom_site_type_symbol
_atom_site_fract_x
_atom_site_fract_y
_atom_site_fract_z
_atom_site_charge
Mof_Zn	Zn	0.42347	0.70336	0.69666	1.245
Mof_O 	O 	0.43929	0.8216	0.62234	-0.399
Mof_O 	O 	0.5956	0.5951	0.72867	-0.42
Mof_O 	O 	0.81566	0.1297	0.65266	-0.353
Mof_C 	C 	0.54861	0.2997	0.61971	-0.019
Mof_H 	H 	0.496	0.3105	0.6095	0.067
Mof_O 	O 	0.82419	0.3501	0.69756	-0.334
Mof_O 	O 	0.48394	0.5275	0.6764	-0.429
Mof_O 	O 	0.53326	0.9735	0.66152	-0.298
Mof_C 	C 	0.58351	0.1875	0.59322	0.021
Mof_C 	C 	0.48864	0.9172	0.61909	0.342
Mof_C 	C 	0.66772	0.3799	0.67584	0.008
Mof_H 	H 	0.6965	0.4458	0.7039	0.071
Mof_C 	C 	0.55379	0.5164	0.69109	0.375
Mof_C 	C 	0.66076	0.1722	0.60808	-0.033
Mof_H 	H 	0.6848	0.0964	0.5898	0.071
Mof_C 	C 	0.70286	0.2676	0.64967	-0.038
Mof_C 	C 	0.54369	0.1181	0.48919	-0.04
Mof_H 	H 	0.5741	0.2	0.4817	0.07
Mof_C 	C 	0.59032	0.3964	0.66109	-0.067
Mof_C 	C 	0.53959	0.0871	0.54692	0.034
Mof_C 	C 	0.49489	0.9659	0.55792	-0.064
Mof_C 	C 	0.78591	0.2476	0.66721	0.288
Mof_H 	H 	0.49	0.911	0.778	0.304
Mof_Zn	Zn	0.92347	0.20336	0.69666	1.242
Mof_O 	O 	0.93929	0.3216	0.62234	-0.399
Mof_O 	O 	0.0956	0.0951	0.72867	-0.428
Mof_O 	O 	0.31566	0.6297	0.65266	-0.353
Mof_C 	C 	0.04861	0.7997	0.61971	0.064
Mof_H 	H 	0.996	0.8105	0.6095	0.022
Mof_O 	O 	0.32419	0.8501	0.69756	-0.333
Mof_O 	O 	0.98394	0.0275	0.6764	-0.46
Mof_O 	O 	0.03326	0.4735	0.66152	-0.276
Mof_C 	C 	0.08351	0.6875	0.59322	-0.025
Mof_C 	C 	0.98864	0.4172	0.61909	0.324
Mof_C 	C 	0.16772	0.8799	0.67584	0.036
Mof_H 	H 	0.1965	0.9458	0.7039	0.063
Mof_C 	C 	0.05379	0.0164	0.69109	0.421
Mof_C 	C 	0.16076	0.6722	0.60808	-0.002
Mof_H 	H 	0.1848	0.5964	0.5898	0.062
Mof_C 	C 	0.20286	0.7676	0.64967	-0.058
Mof_C 	C 	0.04369	0.6181	0.48919	-0.077
Mof_H 	H 	0.0741	0.7	0.4817	0.084
Mof_C 	C 	0.09032	0.8964	0.66109	-0.107
Mof_C 	C 	0.03959	0.5871	0.54692	0.096
Mof_C 	C 	0.99489	0.4659	0.55792	-0.114
Mof_C 	C 	0.28591	0.7476	0.66721	0.296
Mof_H 	H 	0.99	0.411	0.778	0.276
Mof_Zn	Zn	0.57653	0.70336	0.80334	1.246
Mof_O 	O 	0.56071	0.8216	0.87766	-0.398
Mof_O 	O 	0.4044	0.5951	0.77133	-0.419
Mof_O 	O 	0.18434	0.1297	0.84734	-0.351
Mof_C 	C 	0.45139	0.2997	0.88029	-0.018
Mof_H 	H 	0.504	0.3105	0.8905	0.066
Mof_O 	O 	0.17581	0.3501	0.80244	-0.329
Mof_O 	O 	0.51606	0.5275	0.8236	-0.43
Mof_O 	O 	0.46674	0.9735	0.83848	-0.298
Mof_C 	C 	0.41649	0.1875	0.90678	0.021
Mof_C 	C 	0.51136	0.9172	0.88091	0.342
Mof_C 	C 	0.33228	0.3799	0.82416	0.008
Mof_H 	H 	0.3035	0.4458	0.7961	0.072
Mof_C 	C 	0.44621	0.5164	0.80891	0.375
Mof_C 	C 	0.33924	0.1722	0.89192	-0.033
Mof_H 	H 	0.3152	0.0964	0.9102	0.072
Mof_C 	C 	0.29714	0.2676	0.85033	-0.037
Mof_C 	C 	0.45631	0.1181	0.01081	-0.044
Mof_H 	H 	0.4259	0.2	0.0183	0.071
Mof_C 	C 	0.40968	0.3964	0.83891	-0.067
Mof_C 	C 	0.46041	0.0871	0.95308	0.037
Mof_C 	C 	0.50511	0.9659	0.94208	-0.066
Mof_C 	C 	0.21409	0.2476	0.83279	0.288
Mof_H 	H 	0.51	0.911	0.722	0.304
Mof_Zn	Zn	0.07653	0.20336	0.80334	1.247
Mof_O 	O 	0.06071	0.3216	0.87766	-0.398
Mof_O 	O 	0.9044	0.0951	0.77133	-0.413
Mof_O 	O 	0.68434	0.6297	0.84734	-0.35
Mof_C 	C 	0.95139	0.7997	0.88029	-0.1
Mof_H 	H 	0.004	0.8105	0.8905	0.111
Mof_O 	O 	0.67581	0.8501	0.80244	-0.33
Mof_O 	O 	0.01606	0.0275	0.8236	-0.401
Mof_O 	O 	0.96674	0.4735	0.83848	-0.318
Mof_C 	C 	0.91649	0.6875	0.90678	0.067
Mof_C 	C 	0.01136	0.4172	0.88091	0.359
Mof_C 	C 	0.83228	0.8799	0.82416	-0.021
Mof_H 	H 	0.8035	0.9458	0.7961	0.08
Mof_C 	C 	0.94621	0.0164	0.80891	0.329
Mof_C 	C 	0.83924	0.6722	0.89192	-0.063
Mof_H 	H 	0.8152	0.5964	0.9102	0.081
Mof_C 	C 	0.79714	0.7676	0.85033	-0.017
Mof_C 	C 	0.95631	0.6181	0.01081	-0.007
Mof_H 	H 	0.9259	0.7	0.0183	0.057
Mof_C 	C 	0.90968	0.8964	0.83891	-0.027
Mof_C 	C 	0.96041	0.5871	0.95308	-0.024
Mof_C 	C 	0.00511	0.4659	0.94208	-0.017
Mof_C 	C 	0.71409	0.7476	0.83279	0.281
Mof_H 	H 	0.01	0.411	0.722	0.302
Mof_Zn	Zn	0.57653	0.29664	0.30334	1.246
Mof_O 	O 	0.56071	0.1784	0.37766	-0.398
Mof_O 	O 	0.4044	0.4049	0.27133	-0.419
Mof_O 	O 	0.18434	0.8703	0.34734	-0.351
Mof_C 	C 	0.45139	0.7003	0.38029	-0.019
Mof_H 	H 	0.504	0.6895	0.3905	0.066
Mof_O 	O 	0.17581	0.6499	0.30244	-0.329
Mof_O 	O 	0.51606	0.4725	0.3236	-0.43
Mof_O 	O 	0.46674	0.0265	0.33848	-0.298
Mof_C 	C 	0.41649	0.8125	0.40678	0.022
Mof_C 	C 	0.51136	0.0828	0.38091	0.342
Mof_C 	C 	0.33228	0.6201	0.32416	0.007
Mof_H 	H 	0.3035	0.5542	0.2961	0.072
Mof_C 	C 	0.44621	0.4836	0.30891	0.375
Mof_C 	C 	0.33924	0.8278	0.39192	-0.033
Mof_H 	H 	0.3152	0.9036	0.4102	0.072
Mof_C 	C 	0.29714	0.7324	0.35033	-0.037
Mof_C 	C 	0.45631	0.8819	0.51081	-0.04
Mof_H 	H 	0.4259	0.8	0.5183	0.07
Mof_C 	C 	0.40968	0.6036	0.33891	-0.067
Mof_C 	C 	0.46041	0.9129	0.45308	0.034
Mof_C 	C 	0.50511	0.0341	0.44208	-0.064
Mof_C 	C 	0.21409	0.7524	0.33279	0.288
Mof_H 	H 	0.51	0.089	0.222	0.304
Mof_Zn	Zn	0.07653	0.79664	0.30334	1.247
Mof_O 	O 	0.06071	0.6784	0.37766	-0.398
Mof_O 	O 	0.9044	0.9049	0.27133	-0.413
Mof_O 	O 	0.68434	0.3703	0.34734	-0.35
Mof_C 	C 	0.95139	0.2003	0.38029	-0.101
Mof_H 	H 	0.004	0.1895	0.3905	0.111
Mof_O 	O 	0.67581	0.1499	0.30244	-0.33
Mof_O 	O 	0.01606	0.9725	0.3236	-0.401
Mof_O 	O 	0.96674	0.5265	0.33848	-0.318
Mof_C 	C 	0.91649	0.3125	0.40678	0.069
Mof_C 	C 	0.01136	0.5828	0.38091	0.359
Mof_C 	C 	0.83228	0.1201	0.32416	-0.021
Mof_H 	H 	0.8035	0.0542	0.2961	0.08
Mof_C 	C 	0.94621	0.9836	0.30891	0.328
Mof_C 	C 	0.83924	0.3278	0.39192	-0.065
Mof_H 	H 	0.8152	0.4036	0.4102	0.081
Mof_C 	C 	0.79714	0.2324	0.35033	-0.016
Mof_C 	C 	0.95631	0.3819	0.51081	-0.002
Mof_H 	H 	0.9259	0.3	0.5183	0.055
Mof_C 	C 	0.90968	0.1036	0.33891	-0.026
Mof_C 	C 	0.96041	0.4129	0.45308	-0.028
Mof_C 	C 	0.00511	0.5341	0.44208	-0.014
Mof_C 	C 	0.71409	0.2524	0.33279	0.28
Mof_H 	H 	0.01	0.589	0.222	0.301
Mof_Zn	Zn	0.42347	0.29664	0.19666	1.246
Mof_O 	O 	0.43929	0.1784	0.12234	-0.398
Mof_O 	O 	0.5956	0.4049	0.22867	-0.42
Mof_O 	O 	0.81566	0.8703	0.15266	-0.353
Mof_C 	C 	0.54861	0.7003	0.11971	-0.019
Mof_H 	H 	0.496	0.6895	0.1095	0.067
Mof_O 	O 	0.82419	0.6499	0.19756	-0.334
Mof_O 	O 	0.48394	0.4725	0.1764	-0.429
Mof_O 	O 	0.53326	0.0265	0.16152	-0.298
Mof_C 	C 	0.58351	0.8125	0.09322	0.022
Mof_C 	C 	0.48864	0.0828	0.11909	0.341
Mof_C 	C 	0.66772	0.6201	0.17584	0.007
Mof_H 	H 	0.6965	0.5542	0.2039	0.071
Mof_C 	C 	0.55379	0.4836	0.19109	0.375
Mof_C 	C 	0.66076	0.8278	0.10808	-0.034
Mof_H 	H 	0.6848	0.9036	0.0898	0.071
Mof_C 	C 	0.70286	0.7324	0.14967	-0.038
Mof_C 	C 	0.54369	0.8819	0.98919	-0.035
Mof_H 	H 	0.5741	0.8	0.9817	0.069
Mof_C 	C 	0.59032	0.6036	0.16109	-0.067
Mof_C 	C 	0.53959	0.9129	0.04692	0.03
Mof_C 	C 	0.49489	0.0341	0.05792	-0.062
Mof_C 	C 	0.78591	0.7524	0.16721	0.288
Mof_H 	H 	0.49	0.089	0.278	0.304
Mof_Zn	Zn	0.92347	0.79664	0.19666	1.242
Mof_O 	O 	0.93929	0.6784	0.12234	-0.399
Mof_O 	O 	0.0956	0.9049	0.22867	-0.428
Mof_O 	O 	0.31566	0.3703	0.15266	-0.353
Mof_C 	C 	0.04861	0.2003	0.11971	0.063
Mof_H 	H 	0.996	0.1895	0.1095	0.022
Mof_O 	O 	0.32419	0.1499	0.19756	-0.333
Mof_O 	O 	0.98394	0.9725	0.1764	-0.46
Mof_O 	O 	0.03326	0.5265	0.16152	-0.276
Mof_C 	C 	0.08351	0.3125	0.09322	-0.024
Mof_C 	C 	0.98864	0.5828	0.11909	0.323
Mof_C 	C 	0.16772	0.1201	0.17584	0.036
Mof_H 	H 	0.1965	0.0542	0.2039	0.063
Mof_C 	C 	0.05379	0.9836	0.19109	0.421
Mof_C 	C 	0.16076	0.3278	0.10808	-0.003
Mof_H 	H 	0.1848	0.4036	0.0898	0.062
Mof_C 	C 	0.20286	0.2324	0.14967	-0.058
Mof_C 	C 	0.04369	0.3819	0.98919	-0.073
Mof_H 	H 	0.0741	0.3	0.9817	0.083
Mof_C 	C 	0.09032	0.1036	0.16109	-0.107
Mof_C 	C 	0.03959	0.4129	0.04692	0.092
Mof_C 	C 	0.99489	0.5341	0.05792	-0.111
Mof_C 	C 	0.28591	0.2524	0.16721	0.295
Mof_H 	H 	0.99	0.589	0.278	0.276
Mof_O 	O 	0.5	0.8441	0.75	-0.817
Mof_O 	O 	4.33797e-33	0.3441	0.75	-0.78
Mof_O 	O 	0.5	0.1559	0.25	-0.817
Mof_O 	O 	1.44599e-33	0.6559	0.25	-0.78
_end
