# CIF file generated by openbabel 3.1.0, see https://openbabel.org
data_I
_chemical_name_common 'image0'
_cell_length_a 33.138
_cell_length_b 9.893
_cell_length_c 26.959
_cell_angle_alpha 90
_cell_angle_beta 106.751
_cell_angle_gamma 90
_space_group_name_H-M_alt 'P 1'
_space_group_name_Hall 'P 1'
loop_
    _symmetry_equiv_pos_as_xyz
    x,y,z
loop_
    _atom_site_label
    _atom_site_type_symbol
    _atom_site_fract_x
    _atom_site_fract_y
    _atom_site_fract_z
    _atom_site_occupancy
    Dy1      Dy       0.05278    0.11324    0.50190    1.000
    O1       O        0.11743    0.18190    0.56821    1.000
    O2       O        0.12118    0.00690    0.52020    1.000
    O3       O        0.47512    0.59370    0.52923    1.000
    O4       O        0.52258    0.75560    0.55245    1.000
    O5       O        0.44095    0.48000    0.92472    1.000
    O6       O        0.49249    0.32560    0.93747    1.000
    N1       N        0.33318    0.12340    0.69899    1.000
    C1       C        0.45832    0.37910    0.91174    1.000
    C2       C        0.18400    0.07570    0.58299    1.000
    C3       C        0.13787    0.08940    0.55624    1.000
    N2       N        0.33942    0.98570    0.62961    1.000
    C4       C        0.27083    0.06210    0.63100    1.000
    C5       C        0.48733    0.70340    0.55119    1.000
    C6       C        0.39522    0.34740    0.83360    1.000
    H1       H        0.38110    0.41630    0.84660    1.000
    C7       C        0.31689    0.05630    0.65410    1.000
    C8       C        0.20314    0.16000    0.62490    1.000
    H2       H        0.18660    0.22300    0.63720    1.000
    C9       C        0.47599    0.88360    0.61120    1.000
    H3       H        0.50460    0.91010    0.61750    1.000
    C10      C        0.43619    0.31150    0.86107    1.000
    C11      C        0.45992    0.77850    0.57710    1.000
    C12      C        0.25181    0.97690    0.59000    1.000
    H4       H        0.26840    0.91430    0.57770    1.000
    C13      C        0.24609    0.15150    0.64840    1.000
    H5       H        0.25870    0.20850    0.67700    1.000
    N3       N        0.40074    0.05140    0.69590    1.000
    C14      C        0.37541    0.11710    0.71790    1.000
    C15      C        0.20864    0.98280    0.56700    1.000
    H6       H        0.19580    0.92180    0.53990    1.000
    C16      C        0.45653    0.20980    0.84260    1.000
    H7       H        0.48420    0.18310    0.86180    1.000
    C17      C        0.41748    0.74180    0.56730    1.000
    H8       H        0.40650    0.66870    0.54450    1.000
    C18      C        0.39145    0.81170    0.59050    1.000
    H9       H        0.36250    0.78880    0.58300    1.000
    C19      C        0.37472    0.28330    0.78720    1.000
    H10      H        0.34670    0.30770    0.76870    1.000
    C20      C        0.43658    0.14690    0.79620    1.000
    H11      H        0.45080    0.07820    0.78320    1.000
    C21      C        0.38102    0.98720    0.65170    1.000
    C22      C        0.39554    0.18390    0.76830    1.000
    C23      C        0.40835    0.91540    0.62490    1.000
    C24      C        0.45082    0.94920    0.63560    1.000
    H12      H        0.46230    0.01830    0.66000    1.000
    Dy2      Dy       0.55278    0.61324    0.50190    1.000
    O7       O        0.61743    0.68190    0.56821    1.000
    O8       O        0.62118    0.50690    0.52020    1.000
    O9       O        0.97512    0.09370    0.52923    1.000
    O10      O        0.02258    0.25560    0.55245    1.000
    O11      O        0.94095    0.98000    0.92472    1.000
    O12      O        0.99249    0.82560    0.93747    1.000
    N4       N        0.83318    0.62340    0.69899    1.000
    C25      C        0.95832    0.87910    0.91174    1.000
    C26      C        0.68400    0.57570    0.58299    1.000
    C27      C        0.63787    0.58940    0.55624    1.000
    N5       N        0.83942    0.48570    0.62961    1.000
    C28      C        0.77083    0.56210    0.63100    1.000
    C29      C        0.98733    0.20340    0.55119    1.000
    C30      C        0.89522    0.84740    0.83360    1.000
    H13      H        0.88110    0.91630    0.84660    1.000
    C31      C        0.81689    0.55630    0.65410    1.000
    C32      C        0.70314    0.66000    0.62490    1.000
    H14      H        0.68660    0.72300    0.63720    1.000
    C33      C        0.97599    0.38360    0.61120    1.000
    H15      H        0.00460    0.41010    0.61750    1.000
    C34      C        0.93619    0.81150    0.86107    1.000
    C35      C        0.95992    0.27850    0.57710    1.000
    C36      C        0.75181    0.47690    0.59000    1.000
    H16      H        0.76840    0.41430    0.57770    1.000
    C37      C        0.74609    0.65150    0.64840    1.000
    H17      H        0.75870    0.70850    0.67700    1.000
    N6       N        0.90074    0.55140    0.69590    1.000
    C38      C        0.87541    0.61710    0.71790    1.000
    C39      C        0.70864    0.48280    0.56700    1.000
    H18      H        0.69580    0.42180    0.53990    1.000
    C40      C        0.95653    0.70980    0.84260    1.000
    H19      H        0.98420    0.68310    0.86180    1.000
    C41      C        0.91748    0.24180    0.56730    1.000
    H20      H        0.90650    0.16870    0.54450    1.000
    C42      C        0.89145    0.31170    0.59050    1.000
    H21      H        0.86250    0.28880    0.58300    1.000
    C43      C        0.87472    0.78330    0.78720    1.000
    H22      H        0.84670    0.80770    0.76870    1.000
    C44      C        0.93658    0.64690    0.79620    1.000
    H23      H        0.95080    0.57820    0.78320    1.000
    C45      C        0.88102    0.48720    0.65170    1.000
    C46      C        0.89554    0.68390    0.76830    1.000
    C47      C        0.90835    0.41540    0.62490    1.000
    C48      C        0.95082    0.44920    0.63560    1.000
    H24      H        0.96230    0.51830    0.66000    1.000
    Dy3      Dy       0.94722    0.11324    0.99810    1.000
    O13      O        0.88257    0.18190    0.93179    1.000
    O14      O        0.87882    0.00690    0.97980    1.000
    O15      O        0.52488    0.59370    0.97077    1.000
    O16      O        0.47742    0.75560    0.94755    1.000
    O17      O        0.55905    0.48000    0.57528    1.000
    O18      O        0.50751    0.32560    0.56253    1.000
    N7       N        0.66682    0.12340    0.80101    1.000
    C49      C        0.54168    0.37910    0.58826    1.000
    C50      C        0.81600    0.07570    0.91701    1.000
    C51      C        0.86213    0.08940    0.94376    1.000
    N8       N        0.66058    0.98570    0.87039    1.000
    C52      C        0.72917    0.06210    0.86900    1.000
    C53      C        0.51267    0.70340    0.94881    1.000
    C54      C        0.60478    0.34740    0.66640    1.000
    H25      H        0.61890    0.41630    0.65340    1.000
    C55      C        0.68311    0.05630    0.84590    1.000
    C56      C        0.79686    0.16000    0.87510    1.000
    H26      H        0.81340    0.22300    0.86280    1.000
    C57      C        0.52401    0.88360    0.88880    1.000
    H27      H        0.49540    0.91010    0.88250    1.000
    C58      C        0.56381    0.31150    0.63893    1.000
    C59      C        0.54008    0.77850    0.92290    1.000
    C60      C        0.74819    0.97690    0.91000    1.000
    H28      H        0.73160    0.91430    0.92230    1.000
    C61      C        0.75391    0.15150    0.85160    1.000
    H29      H        0.74130    0.20850    0.82300    1.000
    N9       N        0.59926    0.05140    0.80410    1.000
    C62      C        0.62459    0.11710    0.78210    1.000
    C63      C        0.79136    0.98280    0.93300    1.000
    H30      H        0.80420    0.92180    0.96010    1.000
    C64      C        0.54347    0.20980    0.65740    1.000
    H31      H        0.51580    0.18310    0.63820    1.000
    C65      C        0.58252    0.74180    0.93270    1.000
    H32      H        0.59350    0.66870    0.95550    1.000
    C66      C        0.60855    0.81170    0.90950    1.000
    H33      H        0.63750    0.78880    0.91700    1.000
    C67      C        0.62528    0.28330    0.71280    1.000
    H34      H        0.65330    0.30770    0.73130    1.000
    C68      C        0.56342    0.14690    0.70380    1.000
    H35      H        0.54920    0.07820    0.71680    1.000
    C69      C        0.61898    0.98720    0.84830    1.000
    C70      C        0.60446    0.18390    0.73170    1.000
    C71      C        0.59165    0.91540    0.87510    1.000
    C72      C        0.54918    0.94920    0.86440    1.000
    H36      H        0.53770    0.01830    0.84000    1.000
    Dy4      Dy       0.44722    0.61324    0.99810    1.000
    O19      O        0.38257    0.68190    0.93179    1.000
    O20      O        0.37882    0.50690    0.97980    1.000
    O21      O        0.02488    0.09370    0.97077    1.000
    O22      O        0.97742    0.25560    0.94755    1.000
    O23      O        0.05905    0.98000    0.57528    1.000
    O24      O        0.00751    0.82560    0.56253    1.000
    N10      N        0.16682    0.62340    0.80101    1.000
    C73      C        0.04168    0.87910    0.58826    1.000
    C74      C        0.31600    0.57570    0.91701    1.000
    C75      C        0.36213    0.58940    0.94376    1.000
    N11      N        0.16058    0.48570    0.87039    1.000
    C76      C        0.22917    0.56210    0.86900    1.000
    C77      C        0.01267    0.20340    0.94881    1.000
    C78      C        0.10478    0.84740    0.66640    1.000
    H37      H        0.11890    0.91630    0.65340    1.000
    C79      C        0.18311    0.55630    0.84590    1.000
    C80      C        0.29686    0.66000    0.87510    1.000
    H38      H        0.31340    0.72300    0.86280    1.000
    C81      C        0.02401    0.38360    0.88880    1.000
    H39      H        0.99540    0.41010    0.88250    1.000
    C82      C        0.06381    0.81150    0.63893    1.000
    C83      C        0.04008    0.27850    0.92290    1.000
    C84      C        0.24819    0.47690    0.91000    1.000
    H40      H        0.23160    0.41430    0.92230    1.000
    C85      C        0.25391    0.65150    0.85160    1.000
    H41      H        0.24130    0.70850    0.82300    1.000
    N12      N        0.09926    0.55140    0.80410    1.000
    C86      C        0.12459    0.61710    0.78210    1.000
    C87      C        0.29136    0.48280    0.93300    1.000
    H42      H        0.30420    0.42180    0.96010    1.000
    C88      C        0.04347    0.70980    0.65740    1.000
    H43      H        0.01580    0.68310    0.63820    1.000
    C89      C        0.08252    0.24180    0.93270    1.000
    H44      H        0.09350    0.16870    0.95550    1.000
    C90      C        0.10855    0.31170    0.90950    1.000
    H45      H        0.13750    0.28880    0.91700    1.000
    C91      C        0.12528    0.78330    0.71280    1.000
    H46      H        0.15330    0.80770    0.73130    1.000
    C92      C        0.06342    0.64690    0.70380    1.000
    H47      H        0.04920    0.57820    0.71680    1.000
    C93      C        0.11898    0.48720    0.84830    1.000
    C94      C        0.10446    0.68390    0.73170    1.000
    C95      C        0.09165    0.41540    0.87510    1.000
    C96      C        0.04918    0.44920    0.86440    1.000
    H48      H        0.03770    0.51830    0.84000    1.000
    Dy5      Dy       0.94722    0.88676    0.49810    1.000
    O25      O        0.88257    0.81810    0.43179    1.000
    O26      O        0.87882    0.99310    0.47980    1.000
    O27      O        0.52488    0.40630    0.47077    1.000
    O28      O        0.47742    0.24440    0.44755    1.000
    O29      O        0.55905    0.52000    0.07528    1.000
    O30      O        0.50751    0.67440    0.06253    1.000
    N13      N        0.66682    0.87660    0.30101    1.000
    C97      C        0.54168    0.62090    0.08826    1.000
    C98      C        0.81600    0.92430    0.41701    1.000
    C99      C        0.86213    0.91060    0.44376    1.000
    N14      N        0.66058    0.01430    0.37039    1.000
    C100     C        0.72917    0.93790    0.36900    1.000
    C101     C        0.51267    0.29660    0.44881    1.000
    C102     C        0.60478    0.65260    0.16640    1.000
    H49      H        0.61890    0.58370    0.15340    1.000
    C103     C        0.68311    0.94370    0.34590    1.000
    C104     C        0.79686    0.84000    0.37510    1.000
    H50      H        0.81340    0.77700    0.36280    1.000
    C105     C        0.52401    0.11640    0.38880    1.000
    H51      H        0.49540    0.08990    0.38250    1.000
    C106     C        0.56381    0.68850    0.13893    1.000
    C107     C        0.54008    0.22150    0.42290    1.000
    C108     C        0.74819    0.02310    0.41000    1.000
    H52      H        0.73160    0.08570    0.42230    1.000
    C109     C        0.75391    0.84850    0.35160    1.000
    H53      H        0.74130    0.79150    0.32300    1.000
    N15      N        0.59926    0.94860    0.30410    1.000
    C110     C        0.62459    0.88290    0.28210    1.000
    C111     C        0.79136    0.01720    0.43300    1.000
    H54      H        0.80420    0.07820    0.46010    1.000
    C112     C        0.54347    0.79020    0.15740    1.000
    H55      H        0.51580    0.81690    0.13820    1.000
    C113     C        0.58252    0.25820    0.43270    1.000
    H56      H        0.59350    0.33130    0.45550    1.000
    C114     C        0.60855    0.18830    0.40950    1.000
    H57      H        0.63750    0.21120    0.41700    1.000
    C115     C        0.62528    0.71670    0.21280    1.000
    H58      H        0.65330    0.69230    0.23130    1.000
    C116     C        0.56342    0.85310    0.20380    1.000
    H59      H        0.54920    0.92180    0.21680    1.000
    C117     C        0.61898    0.01280    0.34830    1.000
    C118     C        0.60446    0.81610    0.23170    1.000
    C119     C        0.59165    0.08460    0.37510    1.000
    C120     C        0.54918    0.05080    0.36440    1.000
    H60      H        0.53770    0.98170    0.34000    1.000
    Dy6      Dy       0.44722    0.38676    0.49810    1.000
    O31      O        0.38257    0.31810    0.43179    1.000
    O32      O        0.37882    0.49310    0.47980    1.000
    O33      O        0.02488    0.90630    0.47077    1.000
    O34      O        0.97742    0.74440    0.44755    1.000
    O35      O        0.05905    0.02000    0.07528    1.000
    O36      O        0.00751    0.17440    0.06253    1.000
    N16      N        0.16682    0.37660    0.30101    1.000
    C121     C        0.04168    0.12090    0.08826    1.000
    C122     C        0.31600    0.42430    0.41701    1.000
    C123     C        0.36213    0.41060    0.44376    1.000
    N17      N        0.16058    0.51430    0.37039    1.000
    C124     C        0.22917    0.43790    0.36900    1.000
    C125     C        0.01267    0.79660    0.44881    1.000
    C126     C        0.10478    0.15260    0.16640    1.000
    H61      H        0.11890    0.08370    0.15340    1.000
    C127     C        0.18311    0.44370    0.34590    1.000
    C128     C        0.29686    0.34000    0.37510    1.000
    H62      H        0.31340    0.27700    0.36280    1.000
    C129     C        0.02401    0.61640    0.38880    1.000
    H63      H        0.99540    0.58990    0.38250    1.000
    C130     C        0.06381    0.18850    0.13893    1.000
    C131     C        0.04008    0.72150    0.42290    1.000
    C132     C        0.24819    0.52310    0.41000    1.000
    H64      H        0.23160    0.58570    0.42230    1.000
    C133     C        0.25391    0.34850    0.35160    1.000
    H65      H        0.24130    0.29150    0.32300    1.000
    N18      N        0.09926    0.44860    0.30410    1.000
    C134     C        0.12459    0.38290    0.28210    1.000
    C135     C        0.29136    0.51720    0.43300    1.000
    H66      H        0.30420    0.57820    0.46010    1.000
    C136     C        0.04347    0.29020    0.15740    1.000
    H67      H        0.01580    0.31690    0.13820    1.000
    C137     C        0.08252    0.75820    0.43270    1.000
    H68      H        0.09350    0.83130    0.45550    1.000
    C138     C        0.10855    0.68830    0.40950    1.000
    H69      H        0.13750    0.71120    0.41700    1.000
    C139     C        0.12528    0.21670    0.21280    1.000
    H70      H        0.15330    0.19230    0.23130    1.000
    C140     C        0.06342    0.35310    0.20380    1.000
    H71      H        0.04920    0.42180    0.21680    1.000
    C141     C        0.11898    0.51280    0.34830    1.000
    C142     C        0.10446    0.31610    0.23170    1.000
    C143     C        0.09165    0.58460    0.37510    1.000
    C144     C        0.04918    0.55080    0.36440    1.000
    H72      H        0.03770    0.48170    0.34000    1.000
    Dy7      Dy       0.05278    0.88676    0.00190    1.000
    O37      O        0.11743    0.81810    0.06821    1.000
    O38      O        0.12118    0.99310    0.02020    1.000
    O39      O        0.47512    0.40630    0.02923    1.000
    O40      O        0.52258    0.24440    0.05245    1.000
    O41      O        0.44095    0.52000    0.42472    1.000
    O42      O        0.49249    0.67440    0.43747    1.000
    N19      N        0.33318    0.87660    0.19899    1.000
    C145     C        0.45832    0.62090    0.41174    1.000
    C146     C        0.18400    0.92430    0.08299    1.000
    C147     C        0.13787    0.91060    0.05624    1.000
    N20      N        0.33942    0.01430    0.12961    1.000
    C148     C        0.27083    0.93790    0.13100    1.000
    C149     C        0.48733    0.29660    0.05119    1.000
    C150     C        0.39522    0.65260    0.33360    1.000
    H73      H        0.38110    0.58370    0.34660    1.000
    C151     C        0.31689    0.94370    0.15410    1.000
    C152     C        0.20314    0.84000    0.12490    1.000
    H74      H        0.18660    0.77700    0.13720    1.000
    C153     C        0.47599    0.11640    0.11120    1.000
    H75      H        0.50460    0.08990    0.11750    1.000
    C154     C        0.43619    0.68850    0.36107    1.000
    C155     C        0.45992    0.22150    0.07710    1.000
    C156     C        0.25181    0.02310    0.09000    1.000
    H76      H        0.26840    0.08570    0.07770    1.000
    C157     C        0.24609    0.84850    0.14840    1.000
    H77      H        0.25870    0.79150    0.17700    1.000
    N21      N        0.40074    0.94860    0.19590    1.000
    C158     C        0.37541    0.88290    0.21790    1.000
    C159     C        0.20864    0.01720    0.06700    1.000
    H78      H        0.19580    0.07820    0.03990    1.000
    C160     C        0.45653    0.79020    0.34260    1.000
    H79      H        0.48420    0.81690    0.36180    1.000
    C161     C        0.41748    0.25820    0.06730    1.000
    H80      H        0.40650    0.33130    0.04450    1.000
    C162     C        0.39145    0.18830    0.09050    1.000
    H81      H        0.36250    0.21120    0.08300    1.000
    C163     C        0.37472    0.71670    0.28720    1.000
    H82      H        0.34670    0.69230    0.26870    1.000
    C164     C        0.43658    0.85310    0.29620    1.000
    H83      H        0.45080    0.92180    0.28320    1.000
    C165     C        0.38102    0.01280    0.15170    1.000
    C166     C        0.39554    0.81610    0.26830    1.000
    C167     C        0.40835    0.08460    0.12490    1.000
    C168     C        0.45082    0.05080    0.13560    1.000
    H84      H        0.46230    0.98170    0.16000    1.000
    Dy8      Dy       0.55278    0.38676    0.00190    1.000
    O43      O        0.61743    0.31810    0.06821    1.000
    O44      O        0.62118    0.49310    0.02020    1.000
    O45      O        0.97512    0.90630    0.02923    1.000
    O46      O        0.02258    0.74440    0.05245    1.000
    O47      O        0.94095    0.02000    0.42472    1.000
    O48      O        0.99249    0.17440    0.43747    1.000
    N22      N        0.83318    0.37660    0.19899    1.000
    C169     C        0.95832    0.12090    0.41174    1.000
    C170     C        0.68400    0.42430    0.08299    1.000
    C171     C        0.63787    0.41060    0.05624    1.000
    N23      N        0.83942    0.51430    0.12961    1.000
    C172     C        0.77083    0.43790    0.13100    1.000
    C173     C        0.98733    0.79660    0.05119    1.000
    C174     C        0.89522    0.15260    0.33360    1.000
    H85      H        0.88110    0.08370    0.34660    1.000
    C175     C        0.81689    0.44370    0.15410    1.000
    C176     C        0.70314    0.34000    0.12490    1.000
    H86      H        0.68660    0.27700    0.13720    1.000
    C177     C        0.97599    0.61640    0.11120    1.000
    H87      H        0.00460    0.58990    0.11750    1.000
    C178     C        0.93619    0.18850    0.36107    1.000
    C179     C        0.95992    0.72150    0.07710    1.000
    C180     C        0.75181    0.52310    0.09000    1.000
    H88      H        0.76840    0.58570    0.07770    1.000
    C181     C        0.74609    0.34850    0.14840    1.000
    H89      H        0.75870    0.29150    0.17700    1.000
    N24      N        0.90074    0.44860    0.19590    1.000
    C182     C        0.87541    0.38290    0.21790    1.000
    C183     C        0.70864    0.51720    0.06700    1.000
    H90      H        0.69580    0.57820    0.03990    1.000
    C184     C        0.95653    0.29020    0.34260    1.000
    H91      H        0.98420    0.31690    0.36180    1.000
    C185     C        0.91748    0.75820    0.06730    1.000
    H92      H        0.90650    0.83130    0.04450    1.000
    C186     C        0.89145    0.68830    0.09050    1.000
    H93      H        0.86250    0.71120    0.08300    1.000
    C187     C        0.87472    0.21670    0.28720    1.000
    H94      H        0.84670    0.19230    0.26870    1.000
    C188     C        0.93658    0.35310    0.29620    1.000
    H95      H        0.95080    0.42180    0.28320    1.000
    C189     C        0.88102    0.51280    0.15170    1.000
    C190     C        0.89554    0.31610    0.26830    1.000
    C191     C        0.90835    0.58460    0.12490    1.000
    C192     C        0.95082    0.55080    0.13560    1.000
    H96      H        0.96230    0.48170    0.16000    1.000
