data_functionalizedCrystal
_audit_creation_method	'EQeq! by Chris Wilmer'
_symmetry_space_group_name_H-M	'P1'
_symmetry_Int_Tables_number	1
_symmetry_cell_setting	triclinic
loop_
_symmetry_equiv_pos_as_xyz
  x,y,z
_cell_length_a	9.549
_cell_length_b	12.141
_cell_length_c	26.717
_cell_angle_alpha	90
_cell_angle_beta	90
_cell_angle_gamma	90
loop_
_atom_site_label
_atom_site_type_symbol
_atom_site_fract_x
_atom_site_fract_y
_atom_site_fract_z
_atom_site_charge
Mof_Ag	Ag	0.78419	0.2803	0.99395	0.73
Mof_Ag	Ag	0.21581	0.2803	0.00605	0.73
Mof_Ag	Ag	0.78419	0.7803	0.50605	0.744
Mof_Ag	Ag	0.21581	0.7803	0.49395	0.744
Mof_H 	H 	0.7931	0.4567	0.18	0.005
Mof_H 	H 	0.799	0.4524	0.2679	0.18
Mof_H 	H 	0.6879	0.1344	0.2643	0.109
Mof_H 	H 	0.6715	0.1427	0.1779	0.014
Mof_H 	H 	0.9731	0.2052	0.3029	0.125
Mof_H 	H 	0.1065	0.0785	0.344	0.027
Mof_H 	H 	0.8073	0.0585	0.4522	-0.02
Mof_H 	H 	0.6899	0.1943	0.4123	0.104
Mof_H 	H 	0.4947	0.3744	0.3082	0.118
Mof_H 	H 	0.3716	0.5111	0.3502	0.076
Mof_H 	H 	0.6825	0.5288	0.4512	0.023
Mof_H 	H 	0.7991	0.3921	0.4086	0.137
Mof_H 	H 	0.2069	0.4567	0.82	0.006
Mof_H 	H 	0.201	0.4524	0.7321	0.181
Mof_H 	H 	0.3121	0.1344	0.7357	0.11
Mof_H 	H 	0.3285	0.1427	0.8221	0.015
Mof_H 	H 	0.0269	0.2052	0.6971	0.125
Mof_H 	H 	0.8935	0.0785	0.656	0.027
Mof_H 	H 	0.1927	0.0585	0.5478	-0.02
Mof_H 	H 	0.3101	0.1943	0.5877	0.104
Mof_H 	H 	0.5053	0.3744	0.6918	0.118
Mof_H 	H 	0.6284	0.5111	0.6498	0.076
Mof_H 	H 	0.3175	0.5288	0.5488	0.023
Mof_H 	H 	0.2009	0.3921	0.5914	0.137
Mof_H 	H 	0.7931	0.9567	0.32	0.015
Mof_H 	H 	0.799	0.9524	0.2321	0.193
Mof_H 	H 	0.6879	0.6344	0.2357	0.121
Mof_H 	H 	0.6715	0.6427	0.3221	0.021
Mof_H 	H 	0.9731	0.7052	0.1971	0.116
Mof_H 	H 	0.1065	0.5785	0.156	0.054
Mof_H 	H 	0.8073	0.5585	0.0478	0.014
Mof_H 	H 	0.6899	0.6943	0.0877	0.095
Mof_H 	H 	0.4947	0.8744	0.1918	0.203
Mof_H 	H 	0.3716	0.0111	0.1498	-0.059
Mof_H 	H 	0.6825	0.0288	0.0488	-0.102
Mof_H 	H 	0.7991	0.8921	0.0914	0.22
Mof_H 	H 	0.2069	0.9567	0.68	0.015
Mof_H 	H 	0.201	0.9524	0.7679	0.193
Mof_H 	H 	0.3121	0.6344	0.7643	0.121
Mof_H 	H 	0.3285	0.6427	0.6779	0.021
Mof_H 	H 	0.0269	0.7052	0.8029	0.116
Mof_H 	H 	0.8935	0.5785	0.844	0.054
Mof_H 	H 	0.1927	0.5585	0.9522	0.014
Mof_H 	H 	0.3101	0.6943	0.9123	0.095
Mof_H 	H 	0.5053	0.8744	0.8082	0.203
Mof_H 	H 	0.6284	0.0111	0.8502	-0.059
Mof_H 	H 	0.3175	0.0288	0.9512	-0.102
Mof_H 	H 	0.2009	0.8921	0.9086	0.22
Mof_C 	C 	0.7439	0.3062	0.1169	0.178
Mof_C 	C 	0.7394	0.3015	0.1715	-0.115
Mof_C 	C 	0.7719	0.392	0.197	0.106
Mof_C 	C 	0.774	0.3902	0.2497	-0.211
Mof_C 	C 	0.7375	0.2922	0.2737	0.205
Mof_C 	C 	0.7059	0.2001	0.2475	-0.208
Mof_C 	C 	0.7005	0.2039	0.1961	0.117
Mof_C 	C 	0.8159	0.2147	0.3534	0.173
Mof_C 	C 	0.9427	0.1775	0.3334	-0.143
Mof_C 	C 	0.022	0.1024	0.3575	0.045
Mof_C 	C 	0.9708	0.0589	0.4061	-0.12
Mof_C 	C 	0.0538	0.9839	0.4301	0.156
Mof_C 	C 	0.8446	0.0904	0.4235	0.096
Mof_C 	C 	0.7732	0.1691	0.3984	-0.194
Mof_C 	C 	0.658	0.3754	0.353	0.202
Mof_C 	C 	0.5327	0.4066	0.3367	-0.197
Mof_C 	C 	0.458	0.488	0.3624	0.073
Mof_C 	C 	0.5094	0.533	0.4043	-0.09
Mof_C 	C 	0.4296	0.6169	0.4334	0.171
Mof_C 	C 	0.644	0.4978	0.4225	0.08
Mof_C 	C 	0.7137	0.4181	0.3967	-0.166
Mof_C 	C 	0.2561	0.3062	0.8831	0.178
Mof_C 	C 	0.2606	0.3015	0.8285	-0.115
Mof_C 	C 	0.2281	0.392	0.803	0.106
Mof_C 	C 	0.226	0.3902	0.7503	-0.211
Mof_C 	C 	0.2625	0.2922	0.7263	0.205
Mof_C 	C 	0.2941	0.2001	0.7525	-0.208
Mof_C 	C 	0.2995	0.2039	0.8039	0.117
Mof_C 	C 	0.1841	0.2147	0.6466	0.173
Mof_C 	C 	0.0573	0.1775	0.6666	-0.143
Mof_C 	C 	0.978	0.1024	0.6425	0.045
Mof_C 	C 	0.0292	0.0589	0.5939	-0.12
Mof_C 	C 	0.9462	0.9839	0.5699	0.156
Mof_C 	C 	0.1554	0.0904	0.5765	0.096
Mof_C 	C 	0.2268	0.1691	0.6016	-0.194
Mof_C 	C 	0.342	0.3754	0.647	0.202
Mof_C 	C 	0.4673	0.4066	0.6633	-0.197
Mof_C 	C 	0.542	0.488	0.6376	0.073
Mof_C 	C 	0.4906	0.533	0.5957	-0.09
Mof_C 	C 	0.5704	0.6169	0.5666	0.171
Mof_C 	C 	0.356	0.4978	0.5775	0.08
Mof_C 	C 	0.2863	0.4181	0.6033	-0.166
Mof_C 	C 	0.7439	0.8062	0.3831	0.186
Mof_C 	C 	0.7394	0.8015	0.3285	-0.116
Mof_C 	C 	0.7719	0.892	0.303	0.113
Mof_C 	C 	0.774	0.8902	0.2503	-0.216
Mof_C 	C 	0.7375	0.7922	0.2263	0.216
Mof_C 	C 	0.7059	0.7001	0.2525	-0.213
Mof_C 	C 	0.7005	0.7039	0.3039	0.123
Mof_C 	C 	0.8159	0.7147	0.1466	0.154
Mof_C 	C 	0.9427	0.6775	0.1666	-0.102
Mof_C 	C 	0.022	0.6024	0.1425	-0.003
Mof_C 	C 	0.9708	0.5589	0.0939	-0.033
Mof_C 	C 	0.0538	0.4839	0.0699	0.088
Mof_C 	C 	0.8446	0.5904	0.0765	0.041
Mof_C 	C 	0.7732	0.6691	0.1016	-0.154
Mof_C 	C 	0.658	0.8754	0.147	0.366
Mof_C 	C 	0.5327	0.9066	0.1633	-0.424
Mof_C 	C 	0.458	0.988	0.1376	0.399
Mof_C 	C 	0.5094	0.033	0.0957	-0.355
Mof_C 	C 	0.4296	0.1169	0.0666	0.252
Mof_C 	C 	0.644	0.9978	0.0775	0.383
Mof_C 	C 	0.7137	0.9181	0.1033	-0.382
Mof_C 	C 	0.2561	0.8062	0.6169	0.186
Mof_C 	C 	0.2606	0.8015	0.6715	-0.116
Mof_C 	C 	0.2281	0.892	0.697	0.113
Mof_C 	C 	0.226	0.8902	0.7497	-0.216
Mof_C 	C 	0.2625	0.7922	0.7737	0.216
Mof_C 	C 	0.2941	0.7001	0.7475	-0.213
Mof_C 	C 	0.2995	0.7039	0.6961	0.123
Mof_C 	C 	0.1841	0.7147	0.8534	0.154
Mof_C 	C 	0.0573	0.6775	0.8334	-0.102
Mof_C 	C 	0.978	0.6024	0.8575	-0.003
Mof_C 	C 	0.0292	0.5589	0.9061	-0.033
Mof_C 	C 	0.9462	0.4839	0.9301	0.088
Mof_C 	C 	0.1554	0.5904	0.9235	0.041
Mof_C 	C 	0.2268	0.6691	0.8984	-0.154
Mof_C 	C 	0.342	0.8754	0.853	0.366
Mof_C 	C 	0.4673	0.9066	0.8367	-0.424
Mof_C 	C 	0.542	0.988	0.8624	0.399
Mof_C 	C 	0.4906	0.033	0.9043	-0.355
Mof_C 	C 	0.5704	0.1169	0.9334	0.252
Mof_C 	C 	0.356	0.9978	0.9225	0.383
Mof_C 	C 	0.2863	0.9181	0.8967	-0.382
Mof_N 	N 	0.7419	0.3088	0.0755	-0.221
Mof_N 	N 	0.7333	0.2956	0.3274	-0.188
Mof_N 	N 	0.1214	0.919	0.4535	-0.221
Mof_N 	N 	0.3641	0.6739	0.4547	-0.228
Mof_N 	N 	0.2581	0.3088	0.9245	-0.221
Mof_N 	N 	0.2667	0.2956	0.6726	-0.188
Mof_N 	N 	0.8786	0.919	0.5465	-0.221
Mof_N 	N 	0.6359	0.6739	0.5453	-0.228
Mof_N 	N 	0.7419	0.8088	0.4245	-0.221
Mof_N 	N 	0.7333	0.7956	0.1726	-0.212
Mof_N 	N 	0.1214	0.419	0.0465	-0.21
Mof_N 	N 	0.3641	0.1739	0.0453	-0.256
Mof_N 	N 	0.2581	0.8088	0.5755	-0.221
Mof_N 	N 	0.2667	0.7956	0.8274	-0.212
Mof_N 	N 	0.8786	0.419	0.9535	-0.21
Mof_N 	N 	0.6359	0.1739	0.9547	-0.256
Mof_B 	B 	0.958	0.0475	0.8695	3.729
Mof_F 	F 	0.8467	0.1088	0.8556	-1.183
Mof_F 	F 	0.0417	0.1081	0.8996	-1.189
Mof_F 	F 	0.916	0.9576	0.8946	-1.165
Mof_F 	F 	0.0314	0.019	0.8286	-1.192
Mof_B 	B 	0.042	0.0475	0.1305	3.729
Mof_F 	F 	0.1533	0.1088	0.1444	-1.183
Mof_F 	F 	0.9583	0.1081	0.1004	-1.189
Mof_F 	F 	0.084	0.9576	0.1054	-1.165
Mof_F 	F 	0.9686	0.019	0.1714	-1.192
Mof_B 	B 	0.958	0.5475	0.6305	3.797
Mof_F 	F 	0.8467	0.6088	0.6444	-1.194
Mof_F 	F 	0.0417	0.6081	0.6004	-1.198
Mof_F 	F 	0.916	0.4576	0.6054	-1.201
Mof_F 	F 	0.0314	0.519	0.6714	-1.193
Mof_B 	B 	0.042	0.5475	0.3695	3.797
Mof_F 	F 	0.1533	0.6088	0.3556	-1.194
Mof_F 	F 	0.9583	0.6081	0.3996	-1.198
Mof_F 	F 	0.084	0.4576	0.3946	-1.201
Mof_F 	F 	0.9686	0.519	0.3286	-1.193
_end
