data_functionalizedCrystal
_audit_creation_method	'EQeq! by Chris Wilmer'
_symmetry_space_group_name_H-M	'P1'
_symmetry_Int_Tables_number	1
_symmetry_cell_setting	triclinic
loop_
_symmetry_equiv_pos_as_xyz
  x,y,z
_cell_length_a	24.8326
_cell_length_b	17.4185
_cell_length_c	17.0634
_cell_angle_alpha	90
_cell_angle_beta	113.428
_cell_angle_gamma	90
loop_
_atom_site_label
_atom_site_type_symbol
_atom_site_fract_x
_atom_site_fract_y
_atom_site_fract_z
_atom_site_charge
Mof_C 	C 	0.11804	0.27212	0.8567	0.371
Mof_C 	C 	0.21023	0.08659	0.9239	0.475
Mof_C 	C 	0.08544	0.32336	0.893	-0.116
Mof_C 	C 	0.35337	0.2349	0.8424	-0.195
Mof_C 	C 	0.29974	0.2298	0.8634	0.467
Mof_C 	C 	0.02487	0.3153	0.8659	0.057
Mof_H 	H 	0.0053	0.2766	0.8277	0.033
Mof_C 	C 	0.34835	0.2203	0.7603	0.127
Mof_H 	H 	0.312	0.2071	0.7184	-0.013
Mof_C 	C 	0.39662	0.2249	0.7394	-0.213
Mof_H 	H 	0.3925	0.2162	0.6835	0.111
Mof_C 	C 	0.0232	0.4227	0.952	0.124
Mof_C 	C 	0.11427	0.3803	0.9507	0.024
Mof_H 	H 	0.1548	0.3849	0.9699	0.05
Mof_C 	C 	0.99398	0.3646	0.8956	-0.147
Mof_H 	H 	0.9536	0.3589	0.8778	0.072
Mof_C 	C 	0.45121	0.2427	0.8021	0.18
Mof_C 	C 	0.08361	0.4305	0.9803	-0.055
Mof_H 	H 	0.1032	0.4691	0.0187	0.033
Mof_C 	C 	0.21956	0.0039	0.9481	-0.194
Mof_C 	C 	0.40767	0.2539	0.9045	0.127
Mof_H 	H 	0.4112	0.2645	0.9598	0.014
Mof_C 	C 	0.4569	0.2572	0.8855	-0.201
Mof_H 	H 	0.4934	0.269	0.9279	0.108
Mof_C 	C 	0.2698	0.905	0.0494	-0.308
Mof_H 	H 	0.2971	0.8912	0.1032	0.133
Mof_C 	C 	0.2595	0.9822	0.0276	0.125
Mof_H 	H 	0.2799	0.0196	0.0672	-0.012
Mof_C 	C 	0.1899	0.9472	0.8916	0.164
Mof_H 	H 	0.1623	0.9602	0.8378	-0.017
Mof_C 	C 	0.2008	0.8702	0.9146	-0.275
Mof_H 	H 	0.1806	0.8323	0.8756	0.131
Mof_C 	C 	0.2401	0.8498	0.9923	0.267
Mof_Mg	Mg	0.17016	0.20044	0.78295	1.458
Mof_N 	N 	0.98622	0.47306	0.9755	-0.075
Mof_N 	N 	0.50421	0.2456	0.788	-0.102
Mof_N 	N 	0.2621	0.7687	0.0272	-0.145
Mof_O 	O 	0.25547	0.19855	0.80718	-0.578
Mof_O 	O 	0.30296	0.25671	0.93256	-0.484
Mof_O 	O 	0.2383	0.13374	0.97932	-0.486
Mof_O 	O 	0.17534	0.10161	0.84817	-0.538
Mof_O 	O 	0.09052	0.23165	0.79307	-0.481
Mof_O 	O 	0.1741	0.27275	0.88838	-0.602
Mof_C 	C 	0.61804	0.77212	0.8567	0.369
Mof_C 	C 	0.71023	0.58659	0.9239	0.473
Mof_C 	C 	0.58544	0.82336	0.893	-0.109
Mof_C 	C 	0.85337	0.7349	0.8424	-0.194
Mof_C 	C 	0.79974	0.7298	0.8634	0.467
Mof_C 	C 	0.52487	0.8153	0.8659	0.042
Mof_H 	H 	0.5053	0.7766	0.8277	0.037
Mof_C 	C 	0.84835	0.7203	0.7603	0.125
Mof_H 	H 	0.812	0.7071	0.7184	-0.013
Mof_C 	C 	0.89662	0.7249	0.7394	-0.211
Mof_H 	H 	0.8925	0.7162	0.6835	0.11
Mof_C 	C 	0.5232	0.9227	0.952	0.112
Mof_C 	C 	0.61427	0.8803	0.9507	0.015
Mof_H 	H 	0.6548	0.8849	0.9699	0.053
Mof_C 	C 	0.49398	0.8646	0.8956	-0.128
Mof_H 	H 	0.4536	0.8589	0.8778	0.066
Mof_C 	C 	0.95121	0.7427	0.8021	0.176
Mof_C 	C 	0.58361	0.9305	0.9803	-0.046
Mof_H 	H 	0.6032	0.9691	0.0187	0.03
Mof_C 	C 	0.71956	0.5039	0.9481	-0.186
Mof_C 	C 	0.90767	0.7539	0.9045	0.125
Mof_H 	H 	0.9112	0.7645	0.9598	0.014
Mof_C 	C 	0.9569	0.7572	0.8855	-0.199
Mof_H 	H 	0.9934	0.769	0.9279	0.106
Mof_C 	C 	0.7698	0.405	0.0494	-0.304
Mof_H 	H 	0.7971	0.3912	0.1032	0.131
Mof_C 	C 	0.7595	0.4822	0.0276	0.115
Mof_H 	H 	0.7799	0.5196	0.0672	-0.009
Mof_C 	C 	0.6899	0.4472	0.8916	0.158
Mof_H 	H 	0.6623	0.4602	0.8378	-0.015
Mof_C 	C 	0.7008	0.3702	0.9146	-0.271
Mof_H 	H 	0.6806	0.3323	0.8756	0.13
Mof_C 	C 	0.7401	0.3498	0.9923	0.265
Mof_Mg	Mg	0.67016	0.70044	0.78295	1.458
Mof_N 	N 	0.48622	0.97306	0.9755	-0.071
Mof_N 	N 	0.00421	0.7456	0.788	-0.098
Mof_N 	N 	0.7621	0.2687	0.0272	-0.146
Mof_O 	O 	0.75547	0.69855	0.80718	-0.578
Mof_O 	O 	0.80296	0.75671	0.93256	-0.484
Mof_O 	O 	0.7383	0.63374	0.97932	-0.485
Mof_O 	O 	0.67534	0.60161	0.84817	-0.537
Mof_O 	O 	0.59052	0.73165	0.79307	-0.481
Mof_O 	O 	0.6741	0.77275	0.88838	-0.601
Mof_C 	C 	0.88196	0.27212	0.6433	0.382
Mof_C 	C 	0.78977	0.08659	0.5761	0.485
Mof_C 	C 	0.91456	0.32336	0.607	-0.153
Mof_C 	C 	0.64663	0.2349	0.6576	-0.203
Mof_C 	C 	0.70026	0.2298	0.6366	0.469
Mof_C 	C 	0.97513	0.3153	0.6341	0.069
Mof_H 	H 	0.9947	0.2766	0.6723	0.023
Mof_C 	C 	0.65165	0.2203	0.7397	0.131
Mof_H 	H 	0.688	0.2071	0.7816	-0.013
Mof_C 	C 	0.60338	0.2249	0.7606	-0.217
Mof_H 	H 	0.6075	0.2162	0.8165	0.116
Mof_C 	C 	0.9768	0.4227	0.548	0.146
Mof_C 	C 	0.88573	0.3803	0.5493	0.087
Mof_H 	H 	0.8452	0.3849	0.5301	0.013
Mof_C 	C 	0.00602	0.3646	0.6044	-0.16
Mof_H 	H 	0.0464	0.3589	0.6222	0.073
Mof_C 	C 	0.54879	0.2427	0.6979	0.181
Mof_C 	C 	0.91639	0.4305	0.5197	-0.173
Mof_H 	H 	0.8968	0.4691	0.4813	0.1
Mof_C 	C 	0.78044	0.0039	0.5519	-0.232
Mof_C 	C 	0.59233	0.2539	0.5955	0.128
Mof_H 	H 	0.5888	0.2645	0.5402	0
Mof_C 	C 	0.5431	0.2572	0.6145	-0.208
Mof_H 	H 	0.5066	0.269	0.5721	0.101
Mof_C 	C 	0.7302	0.905	0.4506	-0.242
Mof_H 	H 	0.7029	0.8912	0.3968	0.114
Mof_C 	C 	0.7405	0.9822	0.4724	0.154
Mof_H 	H 	0.7201	0.0196	0.4328	-0.014
Mof_C 	C 	0.8101	0.9472	0.6084	0.155
Mof_H 	H 	0.8377	0.9602	0.6622	-0.014
Mof_C 	C 	0.7992	0.8702	0.5854	-0.243
Mof_H 	H 	0.8194	0.8323	0.6244	0.119
Mof_C 	C 	0.7599	0.8498	0.5077	0.185
Mof_Mg	Mg	0.82984	0.20044	0.71705	1.458
Mof_N 	N 	0.01378	0.47306	0.5245	-0.097
Mof_N 	N 	0.49579	0.2456	0.712	-0.104
Mof_N 	N 	0.7379	0.7687	0.4728	-0.105
Mof_O 	O 	0.74453	0.19855	0.69282	-0.579
Mof_O 	O 	0.69704	0.25671	0.56744	-0.503
Mof_O 	O 	0.7617	0.13374	0.52068	-0.513
Mof_O 	O 	0.82466	0.10161	0.65183	-0.542
Mof_O 	O 	0.90948	0.23165	0.70693	-0.485
Mof_O 	O 	0.8259	0.27275	0.61162	-0.614
Mof_C 	C 	0.38196	0.77212	0.6433	0.385
Mof_C 	C 	0.28977	0.58659	0.5761	0.483
Mof_C 	C 	0.41456	0.82336	0.607	-0.162
Mof_C 	C 	0.14663	0.7349	0.6576	-0.204
Mof_C 	C 	0.20026	0.7298	0.6366	0.47
Mof_C 	C 	0.47513	0.8153	0.6341	0.086
Mof_H 	H 	0.4947	0.7766	0.6723	0.019
Mof_C 	C 	0.15165	0.7203	0.7397	0.133
Mof_H 	H 	0.188	0.7071	0.7816	-0.013
Mof_C 	C 	0.10338	0.7249	0.7606	-0.219
Mof_H 	H 	0.1075	0.7162	0.8165	0.117
Mof_C 	C 	0.4768	0.9227	0.548	0.161
Mof_C 	C 	0.38573	0.8803	0.5493	0.097
Mof_H 	H 	0.3452	0.8849	0.5301	0.01
Mof_C 	C 	0.50602	0.8646	0.6044	-0.18
Mof_H 	H 	0.5464	0.8589	0.6222	0.079
Mof_C 	C 	0.04879	0.7427	0.6979	0.185
Mof_C 	C 	0.41639	0.9305	0.5197	-0.183
Mof_H 	H 	0.3968	0.9691	0.4813	0.105
Mof_C 	C 	0.28044	0.5039	0.5519	-0.225
Mof_C 	C 	0.09233	0.7539	0.5955	0.13
Mof_H 	H 	0.0888	0.7645	0.5402	0
Mof_C 	C 	0.0431	0.7572	0.6145	-0.21
Mof_H 	H 	0.0066	0.769	0.5721	0.103
Mof_C 	C 	0.2302	0.405	0.4506	-0.236
Mof_H 	H 	0.2029	0.3912	0.3968	0.112
Mof_C 	C 	0.2405	0.4822	0.4724	0.145
Mof_H 	H 	0.2201	0.5196	0.4328	-0.01
Mof_C 	C 	0.3101	0.4472	0.6084	0.148
Mof_H 	H 	0.3377	0.4602	0.6622	-0.012
Mof_C 	C 	0.2992	0.3702	0.5854	-0.238
Mof_H 	H 	0.3194	0.3323	0.6244	0.117
Mof_C 	C 	0.2599	0.3498	0.5077	0.182
Mof_Mg	Mg	0.32984	0.70044	0.71705	1.459
Mof_N 	N 	0.51378	0.97306	0.5245	-0.101
Mof_N 	N 	0.99579	0.7456	0.712	-0.108
Mof_N 	N 	0.2379	0.2687	0.4728	-0.105
Mof_O 	O 	0.24453	0.69855	0.69282	-0.578
Mof_O 	O 	0.19704	0.75671	0.56744	-0.502
Mof_O 	O 	0.2617	0.63374	0.52068	-0.512
Mof_O 	O 	0.32466	0.60161	0.65183	-0.54
Mof_O 	O 	0.40948	0.73165	0.70693	-0.485
Mof_O 	O 	0.3259	0.77275	0.61162	-0.615
Mof_C 	C 	0.88196	0.72788	0.1433	0.398
Mof_C 	C 	0.78977	0.91341	0.0761	0.491
Mof_C 	C 	0.91456	0.67664	0.107	-0.207
Mof_C 	C 	0.64663	0.7651	0.1576	-0.211
Mof_C 	C 	0.70026	0.7702	0.1366	0.472
Mof_C 	C 	0.97513	0.6847	0.1341	0.113
Mof_H 	H 	0.9947	0.7234	0.1723	0.005
Mof_C 	C 	0.65165	0.7797	0.2397	0.133
Mof_H 	H 	0.688	0.7929	0.2816	-0.017
Mof_C 	C 	0.60338	0.7751	0.2606	-0.219
Mof_H 	H 	0.6075	0.7838	0.3165	0.113
Mof_C 	C 	0.9768	0.5773	0.048	0.196
Mof_C 	C 	0.88573	0.6197	0.0493	0.17
Mof_H 	H 	0.8452	0.6151	0.0301	-0.03
Mof_C 	C 	0.00602	0.6354	0.1044	-0.211
Mof_H 	H 	0.0464	0.6411	0.1222	0.085
Mof_C 	C 	0.54879	0.7573	0.1979	0.178
Mof_C 	C 	0.91639	0.5695	0.0197	-0.312
Mof_H 	H 	0.8968	0.5309	0.9813	0.177
Mof_C 	C 	0.78044	0.9961	0.0519	-0.258
Mof_C 	C 	0.59233	0.7461	0.0955	0.128
Mof_H 	H 	0.5888	0.7355	0.0402	-0.013
Mof_C 	C 	0.5431	0.7428	0.1145	-0.213
Mof_H 	H 	0.5066	0.731	0.0721	0.093
Mof_C 	C 	0.7302	0.095	0.9506	-0.164
Mof_H 	H 	0.7029	0.1088	0.8968	0.092
Mof_C 	C 	0.7405	0.0178	0.9724	0.168
Mof_H 	H 	0.7201	0.9804	0.9328	-0.009
Mof_C 	C 	0.8101	0.0528	0.1084	0.133
Mof_H 	H 	0.8377	0.0398	0.1622	-0.011
Mof_C 	C 	0.7992	0.1298	0.0854	-0.204
Mof_H 	H 	0.8194	0.1677	0.1244	0.102
Mof_C 	C 	0.7599	0.1502	0.0077	0.096
Mof_Mg	Mg	0.82984	0.79956	0.21705	1.458
Mof_N 	N 	0.01378	0.52694	0.0245	-0.127
Mof_N 	N 	0.49579	0.7544	0.212	-0.107
Mof_N 	N 	0.7379	0.2313	0.9728	-0.064
Mof_O 	O 	0.74453	0.80145	0.19282	-0.584
Mof_O 	O 	0.69704	0.74329	0.06744	-0.52
Mof_O 	O 	0.7617	0.86626	0.02068	-0.538
Mof_O 	O 	0.82466	0.89839	0.15183	-0.548
Mof_O 	O 	0.90948	0.76835	0.20693	-0.494
Mof_O 	O 	0.8259	0.72725	0.11162	-0.628
Mof_C 	C 	0.38196	0.22788	0.1433	0.402
Mof_C 	C 	0.28977	0.41341	0.0761	0.493
Mof_C 	C 	0.41456	0.17664	0.107	-0.216
Mof_C 	C 	0.14663	0.2651	0.1576	-0.213
Mof_C 	C 	0.20026	0.2702	0.1366	0.472
Mof_C 	C 	0.47513	0.1847	0.1341	0.129
Mof_H 	H 	0.4947	0.2234	0.1723	0
Mof_C 	C 	0.15165	0.2797	0.2397	0.135
Mof_H 	H 	0.188	0.2929	0.2816	-0.017
Mof_C 	C 	0.10338	0.2751	0.2606	-0.222
Mof_H 	H 	0.1075	0.2838	0.3165	0.114
Mof_C 	C 	0.4768	0.0773	0.048	0.21
Mof_C 	C 	0.38573	0.1197	0.0493	0.179
Mof_H 	H 	0.3452	0.1151	0.0301	-0.033
Mof_C 	C 	0.50602	0.1354	0.1044	-0.232
Mof_H 	H 	0.5464	0.1411	0.1222	0.091
Mof_C 	C 	0.04879	0.2573	0.1979	0.182
Mof_C 	C 	0.41639	0.0695	0.0197	-0.322
Mof_H 	H 	0.3968	0.0309	0.9813	0.18
Mof_C 	C 	0.28044	0.4961	0.0519	-0.265
Mof_C 	C 	0.09233	0.2461	0.0955	0.13
Mof_H 	H 	0.0888	0.2355	0.0402	-0.013
Mof_C 	C 	0.0431	0.2428	0.1145	-0.216
Mof_H 	H 	0.0066	0.231	0.0721	0.095
Mof_C 	C 	0.2302	0.595	0.9506	-0.171
Mof_H 	H 	0.2029	0.6088	0.8968	0.095
Mof_C 	C 	0.2405	0.5178	0.9724	0.178
Mof_H 	H 	0.2201	0.4804	0.9328	-0.013
Mof_C 	C 	0.3101	0.5528	0.1084	0.141
Mof_H 	H 	0.3377	0.5398	0.1622	-0.013
Mof_C 	C 	0.2992	0.6298	0.0854	-0.209
Mof_H 	H 	0.3194	0.6677	0.1244	0.104
Mof_C 	C 	0.2599	0.6502	0.0077	0.101
Mof_Mg	Mg	0.32984	0.29956	0.21705	1.458
Mof_N 	N 	0.51378	0.02694	0.0245	-0.133
Mof_N 	N 	0.99579	0.2544	0.212	-0.111
Mof_N 	N 	0.2379	0.7313	0.9728	-0.064
Mof_O 	O 	0.24453	0.30145	0.19282	-0.584
Mof_O 	O 	0.19704	0.24329	0.06744	-0.52
Mof_O 	O 	0.2617	0.36626	0.02068	-0.538
Mof_O 	O 	0.32466	0.39839	0.15183	-0.549
Mof_O 	O 	0.40948	0.26835	0.20693	-0.494
Mof_O 	O 	0.3259	0.22725	0.11162	-0.629
Mof_C 	C 	0.11804	0.72788	0.3567	0.389
Mof_C 	C 	0.21023	0.91341	0.4239	0.482
Mof_C 	C 	0.08544	0.67664	0.393	-0.172
Mof_C 	C 	0.35337	0.7651	0.3424	-0.204
Mof_C 	C 	0.29974	0.7702	0.3634	0.47
Mof_C 	C 	0.02487	0.6847	0.3659	0.103
Mof_H 	H 	0.0053	0.7234	0.3277	0.014
Mof_C 	C 	0.34835	0.7797	0.2603	0.13
Mof_H 	H 	0.312	0.7929	0.2184	-0.017
Mof_C 	C 	0.39662	0.7751	0.2394	-0.216
Mof_H 	H 	0.3925	0.7838	0.1835	0.109
Mof_C 	C 	0.0232	0.5773	0.452	0.176
Mof_C 	C 	0.11427	0.6197	0.4507	0.107
Mof_H 	H 	0.1548	0.6151	0.4699	0.006
Mof_C 	C 	0.99398	0.6354	0.3956	-0.201
Mof_H 	H 	0.9536	0.6411	0.3778	0.085
Mof_C 	C 	0.45121	0.7573	0.3021	0.177
Mof_C 	C 	0.08361	0.5695	0.4803	-0.195
Mof_H 	H 	0.1032	0.5309	0.5187	0.109
Mof_C 	C 	0.21956	0.9961	0.4481	-0.221
Mof_C 	C 	0.40767	0.7461	0.4045	0.127
Mof_H 	H 	0.4112	0.7355	0.4598	0.001
Mof_C 	C 	0.4569	0.7428	0.3855	-0.207
Mof_H 	H 	0.4934	0.731	0.4279	0.1
Mof_C 	C 	0.2698	0.095	0.5494	-0.232
Mof_H 	H 	0.2971	0.1088	0.6032	0.111
Mof_C 	C 	0.2595	0.0178	0.5276	0.139
Mof_H 	H 	0.2799	0.9804	0.5672	-0.007
Mof_C 	C 	0.1899	0.0528	0.3916	0.144
Mof_H 	H 	0.1623	0.0398	0.3378	-0.014
Mof_C 	C 	0.2008	0.1298	0.4146	-0.237
Mof_H 	H 	0.1806	0.1677	0.3756	0.115
Mof_C 	C 	0.2401	0.1502	0.4923	0.179
Mof_Mg	Mg	0.17016	0.79956	0.28295	1.458
Mof_N 	N 	0.98622	0.52694	0.4755	-0.107
Mof_N 	N 	0.50421	0.7544	0.288	-0.104
Mof_N 	N 	0.2621	0.2313	0.5272	-0.104
Mof_O 	O 	0.25547	0.80145	0.30718	-0.584
Mof_O 	O 	0.30296	0.74329	0.43256	-0.503
Mof_O 	O 	0.2383	0.86626	0.47932	-0.512
Mof_O 	O 	0.17534	0.89839	0.34817	-0.544
Mof_O 	O 	0.09052	0.76835	0.29307	-0.49
Mof_O 	O 	0.1741	0.72725	0.38838	-0.617
Mof_C 	C 	0.61804	0.22788	0.3567	0.386
Mof_C 	C 	0.71023	0.41341	0.4239	0.484
Mof_C 	C 	0.58544	0.17664	0.393	-0.163
Mof_C 	C 	0.85337	0.2651	0.3424	-0.203
Mof_C 	C 	0.79974	0.2702	0.3634	0.469
Mof_C 	C 	0.52487	0.1847	0.3659	0.086
Mof_H 	H 	0.5053	0.2234	0.3277	0.019
Mof_C 	C 	0.84835	0.2797	0.2603	0.128
Mof_H 	H 	0.812	0.2929	0.2184	-0.016
Mof_C 	C 	0.89662	0.2751	0.2394	-0.213
Mof_H 	H 	0.8925	0.2838	0.1835	0.107
Mof_C 	C 	0.5232	0.0773	0.452	0.16
Mof_C 	C 	0.61427	0.1197	0.4507	0.097
Mof_H 	H 	0.6548	0.1151	0.4699	0.01
Mof_C 	C 	0.49398	0.1354	0.3956	-0.18
Mof_H 	H 	0.4536	0.1411	0.3778	0.078
Mof_C 	C 	0.95121	0.2573	0.3021	0.173
Mof_C 	C 	0.58361	0.0695	0.4803	-0.184
Mof_H 	H 	0.6032	0.0309	0.5187	0.104
Mof_C 	C 	0.71956	0.4961	0.4481	-0.228
Mof_C 	C 	0.90767	0.2461	0.4045	0.125
Mof_H 	H 	0.9112	0.2355	0.4598	0.001
Mof_C 	C 	0.9569	0.2428	0.3855	-0.205
Mof_H 	H 	0.9934	0.231	0.4279	0.098
Mof_C 	C 	0.7698	0.595	0.5494	-0.238
Mof_H 	H 	0.7971	0.6088	0.6032	0.113
Mof_C 	C 	0.7595	0.5178	0.5276	0.147
Mof_H 	H 	0.7799	0.4804	0.5672	-0.01
Mof_C 	C 	0.6899	0.5528	0.3916	0.151
Mof_H 	H 	0.6623	0.5398	0.3378	-0.016
Mof_C 	C 	0.7008	0.6298	0.4146	-0.241
Mof_H 	H 	0.6806	0.6677	0.3756	0.117
Mof_C 	C 	0.7401	0.6502	0.4923	0.183
Mof_Mg	Mg	0.67016	0.29956	0.28295	1.458
Mof_N 	N 	0.48622	0.02694	0.4755	-0.103
Mof_N 	N 	0.00421	0.2544	0.288	-0.101
Mof_N 	N 	0.7621	0.7313	0.5272	-0.105
Mof_O 	O 	0.75547	0.30145	0.30718	-0.584
Mof_O 	O 	0.80296	0.24329	0.43256	-0.503
Mof_O 	O 	0.7383	0.36626	0.47932	-0.513
Mof_O 	O 	0.67534	0.39839	0.34817	-0.545
Mof_O 	O 	0.59052	0.26835	0.29307	-0.49
Mof_O 	O 	0.6741	0.22725	0.38838	-0.616
Mof_Mg	Mg	0.25	0.25	-0	1.475
Mof_Mg	Mg	0.75	0.25	0.5	1.479
Mof_Mg	Mg	0.75	0.75	-0	1.475
Mof_Mg	Mg	0.25	0.75	0.5	1.479
_end
