data_functionalizedCrystal
_audit_creation_method	'EQeq! by Chris Wilmer'
_symmetry_space_group_name_H-M	'P1'
_symmetry_Int_Tables_number	1
_symmetry_cell_setting	triclinic
loop_
_symmetry_equiv_pos_as_xyz
  x,y,z
_cell_length_a	19.18
_cell_length_b	19.18
_cell_length_c	37.368
_cell_angle_alpha	90
_cell_angle_beta	90
_cell_angle_gamma	120
loop_
_atom_site_label
_atom_site_type_symbol
_atom_site_fract_x
_atom_site_fract_y
_atom_site_fract_z
_atom_site_charge
Mof_C 	C 	0.9745	0.2098	0.19127	0.397
Mof_O 	O 	0.96356	0.18327	0.15965	-0.472
Mof_C 	C 	0.0515	0.2291	0.20843	-0.115
Mof_O 	O 	0.92536	0.22107	0.20927	-0.482
Mof_C 	C 	0.0673	0.2597	0.24368	-0.004
Mof_H 	H 	0.0302	0.2697	0.2552	0.047
Mof_C 	C 	0.1949	0.2868	0.3213	-0.009
Mof_C 	C 	0.2246	0.3503	0.3101	-0.007
Mof_C 	C 	0.64117	0.54313	0.5246	0.398
Mof_O 	O 	0.63023	0.5166	0.49298	-0.471
Mof_C 	C 	0.71817	0.56243	0.54176	-0.115
Mof_O 	O 	0.59203	0.5544	0.5426	-0.482
Mof_C 	C 	0.73397	0.59303	0.57701	-0.004
Mof_H 	H 	0.69687	0.60303	0.58853	0.047
Mof_C 	C 	0.86157	0.62013	0.65463	-0.009
Mof_C 	C 	0.89127	0.68363	0.64343	-0.007
Mof_C 	C 	0.30783	0.87647	0.85794	0.398
Mof_O 	O 	0.29689	0.84994	0.82632	-0.471
Mof_C 	C 	0.38483	0.89577	0.8751	-0.115
Mof_O 	O 	0.25869	0.88774	0.87594	-0.483
Mof_C 	C 	0.40063	0.92637	0.91035	-0.004
Mof_H 	H 	0.36353	0.93637	0.92187	0.047
Mof_C 	C 	0.52823	0.95347	0.98797	-0.009
Mof_C 	C 	0.55793	0.01697	0.97677	-0.007
Mof_C 	C 	0.7902	0.7647	0.19127	0.398
Mof_O 	O 	0.81673	0.78029	0.15965	-0.471
Mof_C 	C 	0.7709	0.8224	0.20843	-0.115
Mof_O 	O 	0.77893	0.70429	0.20927	-0.483
Mof_C 	C 	0.7403	0.8076	0.24368	-0.004
Mof_H 	H 	0.7303	0.7605	0.2552	0.047
Mof_C 	C 	0.7132	0.9081	0.3213	-0.009
Mof_C 	C 	0.6497	0.8743	0.3101	-0.007
Mof_C 	C 	0.45687	0.09803	0.5246	0.398
Mof_O 	O 	0.4834	0.11362	0.49298	-0.471
Mof_C 	C 	0.43757	0.15573	0.54176	-0.115
Mof_O 	O 	0.4456	0.03762	0.5426	-0.483
Mof_C 	C 	0.40697	0.14093	0.57701	-0.004
Mof_H 	H 	0.39697	0.09383	0.58853	0.047
Mof_C 	C 	0.37987	0.24143	0.65463	-0.009
Mof_C 	C 	0.31637	0.20763	0.64343	-0.007
Mof_C 	C 	0.12353	0.43137	0.85794	0.398
Mof_O 	O 	0.15006	0.44696	0.82632	-0.471
Mof_C 	C 	0.10423	0.48907	0.8751	-0.115
Mof_O 	O 	0.11226	0.37096	0.87594	-0.482
Mof_C 	C 	0.07363	0.47427	0.91035	-0.004
Mof_H 	H 	0.06363	0.42717	0.92187	0.047
Mof_C 	C 	0.04653	0.57477	0.98797	-0.009
Mof_C 	C 	0.98303	0.54097	0.97677	-0.007
Mof_C 	C 	0.2353	0.0255	0.19127	0.398
Mof_O 	O 	0.21971	0.03644	0.15965	-0.471
Mof_C 	C 	0.1776	0.9485	0.20843	-0.114
Mof_O 	O 	0.29571	0.07464	0.20927	-0.482
Mof_C 	C 	0.1924	0.9327	0.24368	-0.005
Mof_H 	H 	0.2395	0.9698	0.2552	0.047
Mof_C 	C 	0.0919	0.8051	0.3213	-0.009
Mof_C 	C 	0.1257	0.7754	0.3101	-0.007
Mof_C 	C 	0.90197	0.35883	0.5246	0.398
Mof_O 	O 	0.88638	0.36977	0.49298	-0.471
Mof_C 	C 	0.84427	0.28183	0.54176	-0.115
Mof_O 	O 	0.96238	0.40797	0.5426	-0.482
Mof_C 	C 	0.85907	0.26603	0.57701	-0.004
Mof_H 	H 	0.90617	0.30313	0.58853	0.047
Mof_C 	C 	0.75857	0.13843	0.65463	-0.009
Mof_C 	C 	0.79237	0.10873	0.64343	-0.007
Mof_C 	C 	0.56863	0.69217	0.85794	0.398
Mof_O 	O 	0.55304	0.70311	0.82632	-0.471
Mof_C 	C 	0.51093	0.61517	0.8751	-0.115
Mof_O 	O 	0.62904	0.74131	0.87594	-0.483
Mof_C 	C 	0.52573	0.59937	0.91035	-0.004
Mof_H 	H 	0.57283	0.63647	0.92187	0.047
Mof_C 	C 	0.42523	0.47177	0.98797	-0.009
Mof_C 	C 	0.45903	0.44207	0.97677	-0.007
Mof_C 	C 	0.2098	0.9745	0.80873	0.398
Mof_O 	O 	0.18327	0.96356	0.84035	-0.471
Mof_C 	C 	0.2291	0.0515	0.79157	-0.115
Mof_O 	O 	0.22107	0.92536	0.79073	-0.482
Mof_C 	C 	0.2597	0.0673	0.75632	-0.004
Mof_H 	H 	0.2697	0.0302	0.7448	0.047
Mof_C 	C 	0.2868	0.1949	0.6787	-0.009
Mof_C 	C 	0.3503	0.2246	0.6899	-0.007
Mof_C 	C 	0.87647	0.30783	0.14206	0.398
Mof_O 	O 	0.84994	0.29689	0.17368	-0.471
Mof_C 	C 	0.89577	0.38483	0.1249	-0.115
Mof_O 	O 	0.88774	0.25869	0.12406	-0.483
Mof_C 	C 	0.92637	0.40063	0.08965	-0.004
Mof_H 	H 	0.93637	0.36353	0.07813	0.047
Mof_C 	C 	0.95347	0.52823	0.01203	-0.009
Mof_C 	C 	0.01697	0.55793	0.02323	-0.007
Mof_C 	C 	0.54313	0.64117	0.4754	0.398
Mof_O 	O 	0.5166	0.63023	0.50702	-0.471
Mof_C 	C 	0.56243	0.71817	0.45824	-0.115
Mof_O 	O 	0.5544	0.59203	0.4574	-0.482
Mof_C 	C 	0.59303	0.73397	0.42299	-0.004
Mof_H 	H 	0.60303	0.69687	0.41147	0.047
Mof_C 	C 	0.62013	0.86157	0.34537	-0.009
Mof_C 	C 	0.68363	0.89127	0.35657	-0.007
Mof_C 	C 	0.7647	0.7902	0.80873	0.398
Mof_O 	O 	0.78029	0.81673	0.84035	-0.471
Mof_C 	C 	0.8224	0.7709	0.79157	-0.115
Mof_O 	O 	0.70429	0.77893	0.79073	-0.483
Mof_C 	C 	0.8076	0.7403	0.75632	-0.004
Mof_H 	H 	0.7605	0.7303	0.7448	0.047
Mof_C 	C 	0.9081	0.7132	0.6787	-0.009
Mof_C 	C 	0.8743	0.6497	0.6899	-0.007
Mof_C 	C 	0.43137	0.12353	0.14206	0.398
Mof_O 	O 	0.44696	0.15006	0.17368	-0.471
Mof_C 	C 	0.48907	0.10423	0.1249	-0.115
Mof_O 	O 	0.37096	0.11226	0.12406	-0.482
Mof_C 	C 	0.47427	0.07363	0.08965	-0.004
Mof_H 	H 	0.42717	0.06363	0.07813	0.047
Mof_C 	C 	0.57477	0.04653	0.01203	-0.009
Mof_C 	C 	0.54097	0.98303	0.02323	-0.007
Mof_C 	C 	0.09803	0.45687	0.4754	0.398
Mof_O 	O 	0.11362	0.4834	0.50702	-0.471
Mof_C 	C 	0.15573	0.43757	0.45824	-0.115
Mof_O 	O 	0.03762	0.4456	0.4574	-0.483
Mof_C 	C 	0.14093	0.40697	0.42299	-0.004
Mof_H 	H 	0.09383	0.39697	0.41147	0.047
Mof_C 	C 	0.24143	0.37987	0.34537	-0.009
Mof_C 	C 	0.20763	0.31637	0.35657	-0.007
Mof_C 	C 	0.0255	0.2353	0.80873	0.398
Mof_O 	O 	0.03644	0.21971	0.84035	-0.471
Mof_C 	C 	0.9485	0.1776	0.79157	-0.114
Mof_O 	O 	0.07464	0.29571	0.79073	-0.482
Mof_C 	C 	0.9327	0.1924	0.75632	-0.005
Mof_H 	H 	0.9698	0.2395	0.7448	0.047
Mof_C 	C 	0.8051	0.0919	0.6787	-0.009
Mof_C 	C 	0.7754	0.1257	0.6899	-0.007
Mof_C 	C 	0.69217	0.56863	0.14206	0.398
Mof_O 	O 	0.70311	0.55304	0.17368	-0.471
Mof_C 	C 	0.61517	0.51093	0.1249	-0.115
Mof_O 	O 	0.74131	0.62904	0.12406	-0.483
Mof_C 	C 	0.59937	0.52573	0.08965	-0.004
Mof_H 	H 	0.63647	0.57283	0.07813	0.047
Mof_C 	C 	0.47177	0.42523	0.01203	-0.009
Mof_C 	C 	0.44207	0.45903	0.02323	-0.007
Mof_C 	C 	0.35883	0.90197	0.4754	0.398
Mof_O 	O 	0.36977	0.88638	0.50702	-0.471
Mof_C 	C 	0.28183	0.84427	0.45824	-0.115
Mof_O 	O 	0.40797	0.96238	0.4574	-0.482
Mof_C 	C 	0.26603	0.85907	0.42299	-0.004
Mof_H 	H 	0.30313	0.90617	0.41147	0.047
Mof_C 	C 	0.13843	0.75857	0.34537	-0.009
Mof_C 	C 	0.10873	0.79237	0.35657	-0.007
Mof_C 	C 	0.0255	0.7902	0.80873	0.398
Mof_O 	O 	0.03644	0.81673	0.84035	-0.471
Mof_C 	C 	0.9485	0.7709	0.79157	-0.115
Mof_O 	O 	0.07464	0.77893	0.79073	-0.482
Mof_C 	C 	0.9327	0.7403	0.75632	-0.004
Mof_H 	H 	0.9698	0.7303	0.7448	0.047
Mof_C 	C 	0.8051	0.7132	0.6787	-0.009
Mof_C 	C 	0.7754	0.6497	0.6899	-0.007
Mof_C 	C 	0.69217	0.12353	0.14206	0.398
Mof_O 	O 	0.70311	0.15006	0.17368	-0.471
Mof_C 	C 	0.61517	0.10423	0.1249	-0.115
Mof_O 	O 	0.74131	0.11226	0.12406	-0.483
Mof_C 	C 	0.59937	0.07363	0.08965	-0.004
Mof_H 	H 	0.63647	0.06363	0.07813	0.047
Mof_C 	C 	0.47177	0.04653	0.01203	-0.009
Mof_C 	C 	0.44207	0.98303	0.02323	-0.007
Mof_C 	C 	0.35883	0.45687	0.4754	0.398
Mof_O 	O 	0.36977	0.4834	0.50702	-0.471
Mof_C 	C 	0.28183	0.43757	0.45824	-0.115
Mof_O 	O 	0.40797	0.4456	0.4574	-0.482
Mof_C 	C 	0.26603	0.40697	0.42299	-0.004
Mof_H 	H 	0.30313	0.39697	0.41147	0.047
Mof_C 	C 	0.13843	0.37987	0.34537	-0.009
Mof_C 	C 	0.10873	0.31637	0.35657	-0.007
Mof_C 	C 	0.2098	0.2353	0.80873	0.398
Mof_O 	O 	0.18327	0.21971	0.84035	-0.471
Mof_C 	C 	0.2291	0.1776	0.79157	-0.115
Mof_O 	O 	0.22107	0.29571	0.79073	-0.483
Mof_C 	C 	0.2597	0.1924	0.75632	-0.004
Mof_H 	H 	0.2697	0.2395	0.7448	0.047
Mof_C 	C 	0.2868	0.0919	0.6787	-0.009
Mof_C 	C 	0.3503	0.1257	0.6899	-0.007
Mof_C 	C 	0.87647	0.56863	0.14206	0.398
Mof_O 	O 	0.84994	0.55304	0.17368	-0.471
Mof_C 	C 	0.89577	0.51093	0.1249	-0.115
Mof_O 	O 	0.88774	0.62904	0.12406	-0.482
Mof_C 	C 	0.92637	0.52573	0.08965	-0.004
Mof_H 	H 	0.93637	0.57283	0.07813	0.047
Mof_C 	C 	0.95347	0.42523	0.01203	-0.009
Mof_C 	C 	0.01697	0.45903	0.02323	-0.007
Mof_C 	C 	0.54313	0.90197	0.4754	0.398
Mof_O 	O 	0.5166	0.88638	0.50702	-0.471
Mof_C 	C 	0.56243	0.84427	0.45824	-0.115
Mof_O 	O 	0.5544	0.96238	0.4574	-0.483
Mof_C 	C 	0.59303	0.85907	0.42299	-0.004
Mof_H 	H 	0.60303	0.90617	0.41147	0.047
Mof_C 	C 	0.62013	0.75857	0.34537	-0.009
Mof_C 	C 	0.68363	0.79237	0.35657	-0.007
Mof_C 	C 	0.7647	0.9745	0.80873	0.398
Mof_O 	O 	0.78029	0.96356	0.84035	-0.471
Mof_C 	C 	0.8224	0.0515	0.79157	-0.114
Mof_O 	O 	0.70429	0.92536	0.79073	-0.482
Mof_C 	C 	0.8076	0.0673	0.75632	-0.005
Mof_H 	H 	0.7605	0.0302	0.7448	0.047
Mof_C 	C 	0.9081	0.1949	0.6787	-0.009
Mof_C 	C 	0.8743	0.2246	0.6899	-0.007
Mof_C 	C 	0.43137	0.30783	0.14206	0.398
Mof_O 	O 	0.44696	0.29689	0.17368	-0.471
Mof_C 	C 	0.48907	0.38483	0.1249	-0.115
Mof_O 	O 	0.37096	0.25869	0.12406	-0.483
Mof_C 	C 	0.47427	0.40063	0.08965	-0.004
Mof_H 	H 	0.42717	0.36353	0.07813	0.047
Mof_C 	C 	0.57477	0.52823	0.01203	-0.009
Mof_C 	C 	0.54097	0.55793	0.02323	-0.007
Mof_C 	C 	0.09803	0.64117	0.4754	0.398
Mof_O 	O 	0.11362	0.63023	0.50702	-0.471
Mof_C 	C 	0.15573	0.71817	0.45824	-0.115
Mof_O 	O 	0.03762	0.59203	0.4574	-0.482
Mof_C 	C 	0.14093	0.73397	0.42299	-0.004
Mof_H 	H 	0.09383	0.69687	0.41147	0.047
Mof_C 	C 	0.24143	0.86157	0.34537	-0.009
Mof_C 	C 	0.20763	0.89127	0.35657	-0.007
Mof_C 	C 	0.7902	0.0255	0.19127	0.398
Mof_O 	O 	0.81673	0.03644	0.15965	-0.471
Mof_C 	C 	0.7709	0.9485	0.20843	-0.115
Mof_O 	O 	0.77893	0.07464	0.20927	-0.482
Mof_C 	C 	0.7403	0.9327	0.24368	-0.004
Mof_H 	H 	0.7303	0.9698	0.2552	0.047
Mof_C 	C 	0.7132	0.8051	0.3213	-0.009
Mof_C 	C 	0.6497	0.7754	0.3101	-0.007
Mof_C 	C 	0.45687	0.35883	0.5246	0.398
Mof_O 	O 	0.4834	0.36977	0.49298	-0.471
Mof_C 	C 	0.43757	0.28183	0.54176	-0.115
Mof_O 	O 	0.4456	0.40797	0.5426	-0.482
Mof_C 	C 	0.40697	0.26603	0.57701	-0.004
Mof_H 	H 	0.39697	0.30313	0.58853	0.047
Mof_C 	C 	0.37987	0.13843	0.65463	-0.009
Mof_C 	C 	0.31637	0.10873	0.64343	-0.007
Mof_C 	C 	0.12353	0.69217	0.85794	0.398
Mof_O 	O 	0.15006	0.70311	0.82632	-0.471
Mof_C 	C 	0.10423	0.61517	0.8751	-0.115
Mof_O 	O 	0.11226	0.74131	0.87594	-0.483
Mof_C 	C 	0.07363	0.59937	0.91035	-0.004
Mof_H 	H 	0.06363	0.63647	0.92187	0.047
Mof_C 	C 	0.04653	0.47177	0.98797	-0.009
Mof_C 	C 	0.98303	0.44207	0.97677	-0.007
Mof_C 	C 	0.2353	0.2098	0.19127	0.398
Mof_O 	O 	0.21971	0.18327	0.15965	-0.471
Mof_C 	C 	0.1776	0.2291	0.20843	-0.115
Mof_O 	O 	0.29571	0.22107	0.20927	-0.483
Mof_C 	C 	0.1924	0.2597	0.24368	-0.004
Mof_H 	H 	0.2395	0.2697	0.2552	0.047
Mof_C 	C 	0.0919	0.2868	0.3213	-0.009
Mof_C 	C 	0.1257	0.3503	0.3101	-0.007
Mof_C 	C 	0.90197	0.54313	0.5246	0.398
Mof_O 	O 	0.88638	0.5166	0.49298	-0.471
Mof_C 	C 	0.84427	0.56243	0.54176	-0.115
Mof_O 	O 	0.96238	0.5544	0.5426	-0.483
Mof_C 	C 	0.85907	0.59303	0.57701	-0.004
Mof_H 	H 	0.90617	0.60303	0.58853	0.047
Mof_C 	C 	0.75857	0.62013	0.65463	-0.009
Mof_C 	C 	0.79237	0.68363	0.64343	-0.007
Mof_C 	C 	0.56863	0.87647	0.85794	0.398
Mof_O 	O 	0.55304	0.84994	0.82632	-0.471
Mof_C 	C 	0.51093	0.89577	0.8751	-0.115
Mof_O 	O 	0.62904	0.88774	0.87594	-0.482
Mof_C 	C 	0.52573	0.92637	0.91035	-0.004
Mof_H 	H 	0.57283	0.93637	0.92187	0.047
Mof_C 	C 	0.42523	0.95347	0.98797	-0.009
Mof_C 	C 	0.45903	0.01697	0.97677	-0.007
Mof_C 	C 	0.9745	0.7647	0.19127	0.398
Mof_O 	O 	0.96356	0.78029	0.15965	-0.471
Mof_C 	C 	0.0515	0.8224	0.20843	-0.114
Mof_O 	O 	0.92536	0.70429	0.20927	-0.482
Mof_C 	C 	0.0673	0.8076	0.24368	-0.005
Mof_H 	H 	0.0302	0.7605	0.2552	0.047
Mof_C 	C 	0.1949	0.9081	0.3213	-0.009
Mof_C 	C 	0.2246	0.8743	0.3101	-0.007
Mof_C 	C 	0.64117	0.09803	0.5246	0.398
Mof_O 	O 	0.63023	0.11362	0.49298	-0.471
Mof_C 	C 	0.71817	0.15573	0.54176	-0.115
Mof_O 	O 	0.59203	0.03762	0.5426	-0.482
Mof_C 	C 	0.73397	0.14093	0.57701	-0.004
Mof_H 	H 	0.69687	0.09383	0.58853	0.047
Mof_C 	C 	0.86157	0.24143	0.65463	-0.009
Mof_C 	C 	0.89127	0.20763	0.64343	-0.007
Mof_C 	C 	0.30783	0.43137	0.85794	0.398
Mof_O 	O 	0.29689	0.44696	0.82632	-0.471
Mof_C 	C 	0.38483	0.48907	0.8751	-0.115
Mof_O 	O 	0.25869	0.37096	0.87594	-0.483
Mof_C 	C 	0.40063	0.47427	0.91035	-0.004
Mof_H 	H 	0.36353	0.42717	0.92187	0.047
Mof_C 	C 	0.52823	0.57477	0.98797	-0.009
Mof_C 	C 	0.55793	0.54097	0.97677	-0.007
Mof_Zn	Zn	0.85752	0.14248	0.13313	1.197
Mof_Zn	Zn	0.52419	0.47581	0.46647	1.197
Mof_Zn	Zn	0.19086	0.80914	0.7998	1.197
Mof_Zn	Zn	0.85752	0.71505	0.13313	1.197
Mof_Zn	Zn	0.52419	0.04838	0.46647	1.197
Mof_Zn	Zn	0.19086	0.38171	0.7998	1.197
Mof_Zn	Zn	0.28495	0.14248	0.13313	1.197
Mof_Zn	Zn	0.95162	0.47581	0.46647	1.197
Mof_Zn	Zn	0.61829	0.80914	0.7998	1.197
Mof_Zn	Zn	0.14248	0.85752	0.86687	1.197
Mof_Zn	Zn	0.80914	0.19086	0.2002	1.197
Mof_Zn	Zn	0.47581	0.52419	0.53353	1.197
Mof_Zn	Zn	0.71505	0.85752	0.86687	1.197
Mof_Zn	Zn	0.38171	0.19086	0.2002	1.197
Mof_Zn	Zn	0.04838	0.52419	0.53353	1.197
Mof_Zn	Zn	0.14248	0.28495	0.86687	1.197
Mof_Zn	Zn	0.80914	0.61829	0.2002	1.197
Mof_Zn	Zn	0.47581	0.95162	0.53353	1.197
Mof_C 	C 	0.1076	0.2152	0.19145	0.057
Mof_H 	H 	0.098	0.196	0.1681	0.035
Mof_C 	C 	0.13755	0.2751	0.26173	-0.005
Mof_C 	C 	0.1529	0.3058	0.29864	0.003
Mof_C 	C 	0.77427	0.54853	0.52478	0.057
Mof_H 	H 	0.76467	0.52933	0.50143	0.035
Mof_C 	C 	0.80422	0.60843	0.59506	-0.005
Mof_C 	C 	0.81957	0.63913	0.63197	0.003
Mof_C 	C 	0.44093	0.88187	0.85812	0.057
Mof_H 	H 	0.43133	0.86267	0.83477	0.035
Mof_C 	C 	0.47088	0.94177	0.9284	-0.005
Mof_C 	C 	0.48623	0.97247	0.96531	0.003
Mof_C 	C 	0.7848	0.8924	0.19145	0.057
Mof_H 	H 	0.804	0.902	0.1681	0.035
Mof_C 	C 	0.7249	0.86245	0.26173	-0.005
Mof_C 	C 	0.6942	0.8471	0.29864	0.003
Mof_C 	C 	0.45147	0.22573	0.52478	0.057
Mof_H 	H 	0.47067	0.23533	0.50143	0.035
Mof_C 	C 	0.39157	0.19578	0.59506	-0.005
Mof_C 	C 	0.36087	0.18043	0.63197	0.003
Mof_C 	C 	0.11813	0.55907	0.85812	0.057
Mof_H 	H 	0.13733	0.56867	0.83477	0.035
Mof_C 	C 	0.05823	0.52912	0.9284	-0.005
Mof_C 	C 	0.02753	0.51377	0.96531	0.003
Mof_C 	C 	0.1076	0.8924	0.19145	0.057
Mof_H 	H 	0.098	0.902	0.1681	0.035
Mof_C 	C 	0.13755	0.86245	0.26173	-0.005
Mof_C 	C 	0.1529	0.8471	0.29864	0.003
Mof_C 	C 	0.77427	0.22573	0.52478	0.057
Mof_H 	H 	0.76467	0.23533	0.50143	0.035
Mof_C 	C 	0.80422	0.19578	0.59506	-0.005
Mof_C 	C 	0.81957	0.18043	0.63197	0.003
Mof_C 	C 	0.44093	0.55907	0.85812	0.057
Mof_H 	H 	0.43133	0.56867	0.83477	0.035
Mof_C 	C 	0.47088	0.52912	0.9284	-0.005
Mof_C 	C 	0.48623	0.51377	0.96531	0.003
Mof_C 	C 	0.2152	0.1076	0.80855	0.057
Mof_H 	H 	0.196	0.098	0.8319	0.035
Mof_C 	C 	0.2751	0.13755	0.73827	-0.005
Mof_C 	C 	0.3058	0.1529	0.70136	0.003
Mof_C 	C 	0.88187	0.44093	0.14188	0.057
Mof_H 	H 	0.86267	0.43133	0.16523	0.035
Mof_C 	C 	0.94177	0.47088	0.0716	-0.005
Mof_C 	C 	0.97247	0.48623	0.03469	0.003
Mof_C 	C 	0.54853	0.77427	0.47522	0.057
Mof_H 	H 	0.52933	0.76467	0.49857	0.035
Mof_C 	C 	0.60843	0.80422	0.40494	-0.005
Mof_C 	C 	0.63913	0.81957	0.36803	0.003
Mof_C 	C 	0.8924	0.7848	0.80855	0.057
Mof_H 	H 	0.902	0.804	0.8319	0.035
Mof_C 	C 	0.86245	0.7249	0.73827	-0.005
Mof_C 	C 	0.8471	0.6942	0.70136	0.003
Mof_C 	C 	0.55907	0.11813	0.14188	0.057
Mof_H 	H 	0.56867	0.13733	0.16523	0.035
Mof_C 	C 	0.52912	0.05823	0.0716	-0.005
Mof_C 	C 	0.51377	0.02753	0.03469	0.003
Mof_C 	C 	0.22573	0.45147	0.47522	0.057
Mof_H 	H 	0.23533	0.47067	0.49857	0.035
Mof_C 	C 	0.19578	0.39157	0.40494	-0.005
Mof_C 	C 	0.18043	0.36087	0.36803	0.003
Mof_C 	C 	0.8924	0.1076	0.80855	0.057
Mof_H 	H 	0.902	0.098	0.8319	0.035
Mof_C 	C 	0.86245	0.13755	0.73827	-0.005
Mof_C 	C 	0.8471	0.1529	0.70136	0.003
Mof_C 	C 	0.55907	0.44093	0.14188	0.057
Mof_H 	H 	0.56867	0.43133	0.16523	0.035
Mof_C 	C 	0.52912	0.47088	0.0716	-0.005
Mof_C 	C 	0.51377	0.48623	0.03469	0.003
Mof_C 	C 	0.22573	0.77427	0.47522	0.057
Mof_H 	H 	0.23533	0.76467	0.49857	0.035
Mof_C 	C 	0.19578	0.80422	0.40494	-0.005
Mof_C 	C 	0.18043	0.81957	0.36803	0.003
_end
