data_functionalizedCrystal
_audit_creation_method	'EQeq! by Chris Wilmer'
_symmetry_space_group_name_H-M	'P1'
_symmetry_Int_Tables_number	1
_symmetry_cell_setting	triclinic
loop_
_symmetry_equiv_pos_as_xyz
  x,y,z
_cell_length_a	10.1309
_cell_length_b	11.6829
_cell_length_c	14.8952
_cell_angle_alpha	91.625
_cell_angle_beta	90
_cell_angle_gamma	90
loop_
_atom_site_label
_atom_site_type_symbol
_atom_site_fract_x
_atom_site_fract_y
_atom_site_fract_z
_atom_site_charge
Mof_Mn	Mn	0.10133	0.7605	0.18548	0.975
Mof_Mn	Mn	0.58347	0.24323	0.869	1.006
Mof_Mn	Mn	0.60133	0.7395	0.31452	1.024
Mof_Mn	Mn	0.08347	0.25677	0.631	0.881
Mof_Mn	Mn	0.89867	0.2395	0.81452	1.065
Mof_Mn	Mn	0.41653	0.75677	0.131	1.013
Mof_Mn	Mn	0.39867	0.2605	0.68548	1.013
Mof_Mn	Mn	0.91653	0.74323	0.369	1.13
Mof_Mn	Mn	0.5	0	-0	0.821
Mof_Mn	Mn	9.62429e-33	0.5	0.5	0.922
Mof_Mn	Mn	0.5	0.5	-0	0.919
Mof_Mn	Mn	2.46203e-33	-2.016e-18	0.5	0.818
Mof_H 	H 	0.2482	0.8619	0.3706	-0.073
Mof_H 	H 	0.8856	0.4467	0.9572	-0.036
Mof_H 	H 	0.3402	0.3085	0.0761	-0.049
Mof_H 	H 	0.2033	0.995	0.0103	-0.097
Mof_H 	H 	0.3094	0.0241	0.7671	-0.093
Mof_H 	H 	0.4813	0.519	0.7332	-0.1
Mof_H 	H 	0.7482	0.6381	0.1294	-0.097
Mof_H 	H 	0.3856	0.0533	0.5428	-0.101
Mof_H 	H 	0.8402	0.1915	0.4239	-0.057
Mof_H 	H 	0.7033	0.505	0.4897	-0.08
Mof_H 	H 	0.8094	0.4759	0.7329	-0.094
Mof_H 	H 	0.9813	0.981	0.7668	0.006
Mof_H 	H 	0.7518	0.1381	0.6294	-0.091
Mof_H 	H 	0.1144	0.5533	0.0428	-0.132
Mof_H 	H 	0.6598	0.6915	0.9239	-0.063
Mof_H 	H 	0.7967	0.005	0.9897	-0.057
Mof_H 	H 	0.6906	0.9759	0.2329	-0.117
Mof_H 	H 	0.5187	0.481	0.2668	-0.113
Mof_H 	H 	0.2518	0.3619	0.8706	-0.071
Mof_H 	H 	0.6144	0.9467	0.4572	-0.063
Mof_H 	H 	0.1598	0.8085	0.5761	-0.049
Mof_H 	H 	0.2967	0.495	0.5103	-0.084
Mof_H 	H 	0.1906	0.5241	0.2671	-0.122
Mof_H 	H 	0.0187	0.019	0.2332	-0.226
Mof_C 	C 	0.3693	0.0521	0.81413	0.36
Mof_C 	C 	0.3198	0.8298	0.32965	0.457
Mof_C 	C 	0.7904	0.4263	0.94936	0.454
Mof_C 	C 	0.2196	0.9345	0.05405	0.472
Mof_C 	C 	0.4886	0.4804	0.78916	0.497
Mof_C 	C 	0.3993	0.2578	0.0328	0.318
Mof_C 	C 	0.8693	0.4479	0.68587	0.478
Mof_C 	C 	0.8198	0.6702	0.17035	0.46
Mof_C 	C 	0.2904	0.0737	0.55064	0.462
Mof_C 	C 	0.7196	0.5655	0.44595	0.47
Mof_C 	C 	0.9886	0.0196	0.71084	0.381
Mof_C 	C 	0.8993	0.2422	0.4672	0.426
Mof_C 	C 	0.6307	0.9479	0.18587	0.594
Mof_C 	C 	0.6802	0.1702	0.67035	0.458
Mof_C 	C 	0.2096	0.5737	0.05064	0.478
Mof_C 	C 	0.7804	0.0655	0.94595	0.457
Mof_C 	C 	0.5114	0.5196	0.21084	0.512
Mof_C 	C 	0.6007	0.7422	0.9672	0.548
Mof_C 	C 	0.1307	0.5521	0.31413	0.498
Mof_C 	C 	0.1802	0.3298	0.82965	0.457
Mof_C 	C 	0.7096	0.9263	0.44936	0.456
Mof_C 	C 	0.2804	0.4345	0.55405	0.471
Mof_C 	C 	0.0114	0.9804	0.28916	0.627
Mof_C 	C 	0.1007	0.7578	0.5328	0.442
Mof_O 	O 	0.47178	0.31387	0.97893	-0.37
Mof_O 	O 	0.29441	0.80685	0.24786	-0.47
Mof_O 	O 	0.76207	0.34655	0.8932	-0.472
Mof_O 	O 	0.33845	0.9014	0.06071	-0.471
Mof_O 	O 	0.49899	0.37271	0.78123	-0.492
Mof_O 	O 	0.5007	0.53766	0.85892	-0.373
Mof_O 	O 	0.12276	0.89304	0.09201	-0.421
Mof_O 	O 	0.389	0.9878	0.87648	-0.26
Mof_O 	O 	0.42314	0.14863	0.80294	-0.457
Mof_O 	O 	0.42699	0.81516	0.36791	-0.392
Mof_O 	O 	0.71152	0.48132	0.99666	-0.33
Mof_O 	O 	0.39461	0.1537	0.03742	-0.398
Mof_O 	O 	0.97178	0.18613	0.52107	-0.402
Mof_O 	O 	0.79441	0.69315	0.25214	-0.477
Mof_O 	O 	0.26207	0.15345	0.6068	-0.49
Mof_O 	O 	0.83845	0.5986	0.43929	-0.46
Mof_O 	O 	0.99899	0.12729	0.71877	-0.424
Mof_O 	O 	0.0007	0.96234	0.64108	-0.359
Mof_O 	O 	0.62276	0.60696	0.40799	-0.407
Mof_O 	O 	0.889	0.5122	0.62352	-0.355
Mof_O 	O 	0.92314	0.35137	0.69706	-0.447
Mof_O 	O 	0.92699	0.68484	0.13209	-0.368
Mof_O 	O 	0.21152	0.01868	0.50334	-0.42
Mof_O 	O 	0.89461	0.3463	0.46258	-0.357
Mof_O 	O 	0.52822	0.68613	0.02107	-0.547
Mof_O 	O 	0.70559	0.19315	0.75214	-0.489
Mof_O 	O 	0.23793	0.65345	0.1068	-0.501
Mof_O 	O 	0.66155	0.0986	0.93929	-0.446
Mof_O 	O 	0.50101	0.62729	0.21877	-0.499
Mof_O 	O 	0.4993	0.46234	0.14108	-0.421
Mof_O 	O 	0.87724	0.10696	0.90799	-0.386
Mof_O 	O 	0.611	0.0122	0.12352	-0.483
Mof_O 	O 	0.57686	0.85137	0.19706	-0.512
Mof_O 	O 	0.57301	0.18484	0.63209	-0.411
Mof_O 	O 	0.28848	0.51868	0.00334	-0.435
Mof_O 	O 	0.60539	0.8463	0.96258	-0.34
Mof_O 	O 	0.02822	0.81387	0.47893	-0.488
Mof_O 	O 	0.20559	0.30685	0.74786	-0.483
Mof_O 	O 	0.73793	0.84655	0.3932	-0.476
Mof_O 	O 	0.16155	0.4014	0.56071	-0.486
Mof_O 	O 	0.00101	0.87271	0.28123	-0.56
Mof_O 	O 	0.9993	0.03766	0.35892	-0.4
Mof_O 	O 	0.37724	0.39304	0.59201	-0.406
Mof_O 	O 	0.111	0.4878	0.37648	-0.428
Mof_O 	O 	0.07686	0.64863	0.30294	-0.53
Mof_O 	O 	0.07301	0.31516	0.86791	-0.438
Mof_O 	O 	0.78848	0.98132	0.49666	-0.315
Mof_O 	O 	0.10539	0.6537	0.53742	-0.409
_end
