# CIF file generated by openbabel 3.1.0, see https://openbabel.org
data_I
_chemical_name_common 'image0'
_cell_length_a 12.269
_cell_length_b 12.269
_cell_length_c 4.822
_cell_angle_alpha 90
_cell_angle_beta 90
_cell_angle_gamma 90
_space_group_name_H-M_alt 'P 1'
_space_group_name_Hall 'P 1'
loop_
    _symmetry_equiv_pos_as_xyz
    x,y,z
loop_
    _atom_site_label
    _atom_site_type_symbol
    _atom_site_fract_x
    _atom_site_fract_y
    _atom_site_fract_z
    _atom_site_occupancy
    C1       C        0.71760    0.08650    0.28500    1.000
    C2       C        0.78660    0.14950    0.44100    1.000
    H1       H        0.74160    0.01810    0.22900    1.000
    H2       H        0.85560    0.12450    0.48900    1.000
    C3       C        0.28240    0.91350    0.28500    1.000
    C4       C        0.21340    0.85050    0.44100    1.000
    H3       H        0.25840    0.98190    0.22900    1.000
    H4       H        0.14440    0.87550    0.48900    1.000
    C5       C        0.91350    0.71760    0.28500    1.000
    C6       C        0.85050    0.78660    0.44100    1.000
    H5       H        0.98190    0.74160    0.22900    1.000
    H6       H        0.87550    0.85560    0.48900    1.000
    C7       C        0.08650    0.28240    0.28500    1.000
    C8       C        0.14950    0.21340    0.44100    1.000
    H7       H        0.01810    0.25840    0.22900    1.000
    H8       H        0.12450    0.14440    0.48900    1.000
    C9       C        0.21760    0.41350    0.28500    1.000
    C10      C        0.28660    0.35050    0.44100    1.000
    H9       H        0.24160    0.48190    0.22900    1.000
    H10      H        0.35560    0.37550    0.48900    1.000
    C11      C        0.78240    0.58650    0.28500    1.000
    C12      C        0.71340    0.64950    0.44100    1.000
    H11      H        0.75840    0.51810    0.22900    1.000
    H12      H        0.64440    0.62450    0.48900    1.000
    C13      C        0.41350    0.78240    0.28500    1.000
    C14      C        0.35050    0.71340    0.44100    1.000
    H13      H        0.48190    0.75840    0.22900    1.000
    H14      H        0.37550    0.64440    0.48900    1.000
    C15      C        0.58650    0.21760    0.28500    1.000
    C16      C        0.64950    0.28660    0.44100    1.000
    H15      H        0.51810    0.24160    0.22900    1.000
    H16      H        0.62450    0.35560    0.48900    1.000
    Ag1      Ag       0.50000    0.00000    0.00000    1.000
    Ag2      Ag       0.00000    0.50000    0.00000    1.000
    N1       N        0.61790    0.11790    0.21000    1.000
    C17      C        0.75100    0.25100    0.52400    1.000
    C18      C        0.82170    0.32170    0.67200    1.000
    N2       N        0.87890    0.37890    0.78300    1.000
    N3       N        0.38210    0.88210    0.21000    1.000
    C19      C        0.24900    0.74900    0.52400    1.000
    C20      C        0.17830    0.67830    0.67200    1.000
    N4       N        0.12110    0.62110    0.78300    1.000
    N5       N        0.88210    0.61790    0.21000    1.000
    C21      C        0.74900    0.75100    0.52400    1.000
    C22      C        0.67830    0.82170    0.67200    1.000
    N6       N        0.62110    0.87890    0.78300    1.000
    N7       N        0.11790    0.38210    0.21000    1.000
    C23      C        0.25100    0.24900    0.52400    1.000
    C24      C        0.32170    0.17830    0.67200    1.000
    N8       N        0.37890    0.12110    0.78300    1.000
