# CIF file generated by openbabel 3.1.0, see https://openbabel.org
data_I
_chemical_name_common 'image0'
_cell_length_a 13.4487
_cell_length_b 17.921
_cell_length_c 19.9026
_cell_angle_alpha 90
_cell_angle_beta 90.9833
_cell_angle_gamma 90
_space_group_name_H-M_alt 'P 1'
_space_group_name_Hall 'P 1'
loop_
    _symmetry_equiv_pos_as_xyz
    x,y,z
loop_
    _atom_site_label
    _atom_site_type_symbol
    _atom_site_fract_x
    _atom_site_fract_y
    _atom_site_fract_z
    _atom_site_occupancy
    U1       U        0.34904    0.97817    0.22905    1.000
    U2       U        0.65281    0.00175    0.27448    1.000
    U3       U        0.37856    0.73814    0.37729    1.000
    U4       U        0.62354    0.24835    0.12274    1.000
    U5       U        0.34780    0.00519    0.50941    1.000
    U6       U        0.34884    0.00755    0.01181    1.000
    P1       P        0.14300    0.03242    0.11849    1.000
    P2       P        0.77470    0.07791    0.12828    1.000
    P3       P        0.85870    0.95831    0.38796    1.000
    P4       P        0.49380    0.06105    0.12838    1.000
    P5       P        0.50920    0.92391    0.37924    1.000
    P6       P        0.22700    0.90482    0.37479    1.000
    O1       O        0.48100    0.97500    0.43810    1.000
    F1       F        0.46010    0.28030    0.14080    1.000
    O2       O        0.96170    0.99990    0.39560    1.000
    O3       O        0.37810    0.05420    0.12720    1.000
    O4       O        0.62600    0.93240    0.38010    1.000
    O5       O        0.20120    0.98500    0.16850    1.000
    O6       O        0.52080    0.01910    0.06340    1.000
    O7       O        0.80030    0.00310    0.33540    1.000
    O8       O        0.26140    0.97210    0.41540    1.000
    O9       O        0.19510    0.03760    0.05160    1.000
    O10      O        0.52440    0.01670    0.19190    1.000
    O11      O        0.47940    0.95760    0.31080    1.000
    O12      O        0.04170    0.98880    0.10580    1.000
    O13      O        0.25430    0.91500    0.30190    1.000
    O14      O        0.26440    0.83170    0.40270    1.000
    O15      O        0.87860    0.87950    0.36540    1.000
    O16      O        0.80800    0.96200    0.45500    1.000
    O17      O        0.74890    0.06230    0.20110    1.000
    O18      O        0.74340    0.01160    0.08500    1.000
    O19      O        0.11910    0.10820    0.14690    1.000
    O20      O        0.89170    0.08010    0.12390    1.000
    F2       F        0.54300    0.70620    0.36650    1.000
    O21      O        0.52870    0.13980    0.12890    1.000
    O22      O        0.47690    0.84580    0.38980    1.000
    O23      O        0.73510    0.15180    0.10360    1.000
    O24      O        0.10980    0.90520    0.38000    1.000
    H1       H        0.98860    0.01200    0.10590    1.000
    H2       H        0.08590    0.84630    0.37500    1.000
    H3       H        0.02820    0.97710    0.38690    1.000
    H4       H        0.93260    0.12650    0.11920    1.000
    U7       U        0.15096    0.47817    0.27095    1.000
    U8       U        0.84719    0.50175    0.22552    1.000
    U9       U        0.12144    0.23814    0.12271    1.000
    U10      U        0.87646    0.74835    0.37726    1.000
    U11      U        0.15220    0.50519    0.99059    1.000
    U12      U        0.15116    0.50755    0.48819    1.000
    P7       P        0.35700    0.53242    0.38151    1.000
    P8       P        0.72530    0.57791    0.37172    1.000
    P9       P        0.64130    0.45831    0.11204    1.000
    P10      P        0.00620    0.56105    0.37162    1.000
    P11      P        0.99080    0.42391    0.12076    1.000
    P12      P        0.27300    0.40482    0.12521    1.000
    O25      O        0.01900    0.47500    0.06190    1.000
    F3       F        0.03990    0.78030    0.35920    1.000
    O26      O        0.53830    0.49990    0.10440    1.000
    O27      O        0.12190    0.55420    0.37280    1.000
    O28      O        0.87400    0.43240    0.11990    1.000
    O29      O        0.29880    0.48500    0.33150    1.000
    O30      O        0.97920    0.51910    0.43660    1.000
    O31      O        0.69970    0.50310    0.16460    1.000
    O32      O        0.23860    0.47210    0.08460    1.000
    O33      O        0.30490    0.53760    0.44840    1.000
    O34      O        0.97560    0.51670    0.30810    1.000
    O35      O        0.02060    0.45760    0.18920    1.000
    O36      O        0.45830    0.48880    0.39420    1.000
    O37      O        0.24570    0.41500    0.19810    1.000
    O38      O        0.23560    0.33170    0.09730    1.000
    O39      O        0.62140    0.37950    0.13460    1.000
    O40      O        0.69200    0.46200    0.04500    1.000
    O41      O        0.75110    0.56230    0.29890    1.000
    O42      O        0.75660    0.51160    0.41500    1.000
    O43      O        0.38090    0.60820    0.35310    1.000
    O44      O        0.60830    0.58010    0.37610    1.000
    F4       F        0.95700    0.20620    0.13350    1.000
    O45      O        0.97130    0.63980    0.37110    1.000
    O46      O        0.02310    0.34580    0.11020    1.000
    O47      O        0.76490    0.65180    0.39640    1.000
    O48      O        0.39020    0.40520    0.12000    1.000
    H5       H        0.51140    0.51200    0.39410    1.000
    H6       H        0.41410    0.34630    0.12500    1.000
    H7       H        0.47180    0.47710    0.11310    1.000
    H8       H        0.56740    0.62650    0.38080    1.000
    U13      U        0.65096    0.02183    0.77095    1.000
    U14      U        0.34719    0.99825    0.72552    1.000
    U15      U        0.62144    0.26186    0.62271    1.000
    U16      U        0.37646    0.75165    0.87726    1.000
    U17      U        0.65220    0.99481    0.49059    1.000
    U18      U        0.65116    0.99245    0.98819    1.000
    P13      P        0.85700    0.96758    0.88151    1.000
    P14      P        0.22530    0.92209    0.87172    1.000
    P15      P        0.14130    0.04169    0.61204    1.000
    P16      P        0.50620    0.93895    0.87162    1.000
    P17      P        0.49080    0.07609    0.62076    1.000
    P18      P        0.77300    0.09518    0.62521    1.000
    O49      O        0.51900    0.02500    0.56190    1.000
    F5       F        0.53990    0.71970    0.85920    1.000
    O50      O        0.03830    0.00010    0.60440    1.000
    O51      O        0.62190    0.94580    0.87280    1.000
    O52      O        0.37400    0.06760    0.61990    1.000
    O53      O        0.79880    0.01500    0.83150    1.000
    O54      O        0.47920    0.98090    0.93660    1.000
    O55      O        0.19970    0.99690    0.66460    1.000
    O56      O        0.73860    0.02790    0.58460    1.000
    O57      O        0.80490    0.96240    0.94840    1.000
    O58      O        0.47560    0.98330    0.80810    1.000
    O59      O        0.52060    0.04240    0.68920    1.000
    O60      O        0.95830    0.01120    0.89420    1.000
    O61      O        0.74570    0.08500    0.69810    1.000
    O62      O        0.73560    0.16830    0.59730    1.000
    O63      O        0.12140    0.12050    0.63460    1.000
    O64      O        0.19200    0.03800    0.54500    1.000
    O65      O        0.25110    0.93770    0.79890    1.000
    O66      O        0.25660    0.98840    0.91500    1.000
    O67      O        0.88090    0.89180    0.85310    1.000
    O68      O        0.10830    0.91990    0.87610    1.000
    F6       F        0.45700    0.29380    0.63350    1.000
    O69      O        0.47130    0.86020    0.87110    1.000
    O70      O        0.52310    0.15420    0.61020    1.000
    O71      O        0.26490    0.84820    0.89640    1.000
    O72      O        0.89020    0.09480    0.62000    1.000
    H9       H        0.01140    0.98800    0.89410    1.000
    H10      H        0.91410    0.15370    0.62500    1.000
    H11      H        0.97180    0.02290    0.61310    1.000
    H12      H        0.06740    0.87350    0.88080    1.000
    U19      U        0.84904    0.52183    0.72905    1.000
    U20      U        0.15281    0.49825    0.77448    1.000
    U21      U        0.87856    0.76186    0.87729    1.000
    U22      U        0.12354    0.25165    0.62274    1.000
    U23      U        0.84780    0.49481    0.00941    1.000
    U24      U        0.84884    0.49245    0.51181    1.000
    P19      P        0.64300    0.46758    0.61849    1.000
    P20      P        0.27470    0.42209    0.62828    1.000
    P21      P        0.35870    0.54169    0.88796    1.000
    P22      P        0.99380    0.43895    0.62838    1.000
    P23      P        0.00920    0.57609    0.87924    1.000
    P24      P        0.72700    0.59518    0.87479    1.000
    O73      O        0.98100    0.52500    0.93810    1.000
    F7       F        0.96010    0.21970    0.64080    1.000
    O74      O        0.46170    0.50010    0.89560    1.000
    O75      O        0.87810    0.44580    0.62720    1.000
    O76      O        0.12600    0.56760    0.88010    1.000
    O77      O        0.70120    0.51500    0.66850    1.000
    O78      O        0.02080    0.48090    0.56340    1.000
    O79      O        0.30030    0.49690    0.83540    1.000
    O80      O        0.76140    0.52790    0.91540    1.000
    O81      O        0.69510    0.46240    0.55160    1.000
    O82      O        0.02440    0.48330    0.69190    1.000
    O83      O        0.97940    0.54240    0.81080    1.000
    O84      O        0.54170    0.51120    0.60580    1.000
    O85      O        0.75430    0.58500    0.80190    1.000
    O86      O        0.76440    0.66830    0.90270    1.000
    O87      O        0.37860    0.62050    0.86540    1.000
    O88      O        0.30800    0.53800    0.95500    1.000
    O89      O        0.24890    0.43770    0.70110    1.000
    O90      O        0.24340    0.48840    0.58500    1.000
    O91      O        0.61910    0.39180    0.64690    1.000
    O92      O        0.39170    0.41990    0.62390    1.000
    F8       F        0.04300    0.79380    0.86650    1.000
    O93      O        0.02870    0.36020    0.62890    1.000
    O94      O        0.97690    0.65420    0.88980    1.000
    O95      O        0.23510    0.34820    0.60360    1.000
    O96      O        0.60980    0.59480    0.88000    1.000
    H13      H        0.48860    0.48800    0.60590    1.000
    H14      H        0.58590    0.65370    0.87500    1.000
    H15      H        0.52820    0.52290    0.88690    1.000
    H16      H        0.43260    0.37350    0.61920    1.000
