# CIF file generated by openbabel 3.1.0, see https://openbabel.org
data_I
_chemical_name_common 'image0'
_cell_length_a 8.0769
_cell_length_b 10.8723
_cell_length_c 12.909
_cell_angle_alpha 101.511
_cell_angle_beta 96.399
_cell_angle_gamma 109.817
_space_group_name_H-M_alt 'P 1'
_space_group_name_Hall 'P 1'
loop_
    _symmetry_equiv_pos_as_xyz
    x,y,z
loop_
    _atom_site_label
    _atom_site_type_symbol
    _atom_site_fract_x
    _atom_site_fract_y
    _atom_site_fract_z
    _atom_site_occupancy
    Zn1      Zn       0.51291    0.64882    0.49816    1.000
    Zn2      Zn       0.10138    0.36887    0.47758    1.000
    O1       O        0.32900    0.45190    0.43680    1.000
    H1       H        0.31100    0.41900    0.37000    1.000
    Cl1      Cl       0.43630    0.90550    0.01390    1.000
    N1       N        0.64090    0.98920    0.41110    1.000
    H2       H        0.74400    0.04700    0.39900    1.000
    H3       H        0.68200    0.96400    0.46900    1.000
    N2       N        0.36230    0.75540    0.42800    1.000
    H4       H        0.24200    0.71900    0.42200    1.000
    H5       H        0.39600    0.82200    0.49000    1.000
    C1       C        0.52000    0.89970    0.31880    1.000
    C2       C        0.37890    0.78600    0.32660    1.000
    C3       C        0.25640    0.69950    0.23410    1.000
    H6       H        0.16290    0.62090    0.23950    1.000
    C4       C        0.26990    0.72710    0.13470    1.000
    H7       H        0.18540    0.66830    0.07210    1.000
    C5       C        0.40630    0.84020    0.12690    1.000
    C6       C        0.53310    0.92670    0.21830    1.000
    H8       H        0.62800    0.00370    0.21170    1.000
    O2       O        0.01710    0.17380    0.39410    1.000
    O3       O        0.28780    0.16080    0.42710    1.000
    C7       C        0.12610    0.11170    0.38290    1.000
    C8       C        0.05240    0.96830    0.31750    1.000
    H9       H        0.07300    0.96520    0.24380    1.000
    H10      H        0.92330    0.92900    0.31610    1.000
    H11      H        0.11270    0.91660    0.34980    1.000
    O4       O        0.86780    0.38560    0.44060    1.000
    O5       O        0.58810    0.32300    0.35580    1.000
    C9       C        0.74860    0.33990    0.35380    1.000
    C10      C        0.80670    0.31040    0.24820    1.000
    H12      H        0.70410    0.28290    0.18900    1.000
    H13      H        0.85260    0.23730    0.24510    1.000
    H14      H        0.90140    0.39170    0.24160    1.000
    O6       O        0.10700    0.36170    0.62950    1.000
    O7       O        0.38830    0.37020    0.64540    1.000
    C11      C        0.25200    0.36650    0.68210    1.000
    C12      C        0.26000    0.37030    0.79930    1.000
    H15      H        0.35500    0.34010    0.82450    1.000
    H16      H        0.14450    0.31040    0.80940    1.000
    H17      H        0.28580    0.46290    0.84060    1.000
    Cl2      Cl       0.10900    0.59490    0.02200    1.000
    H18      H        0.41450    0.85980    0.05880    1.000
    Zn3      Zn       0.48709    0.35118    0.50184    1.000
    Zn4      Zn       0.89862    0.63113    0.52242    1.000
    O8       O        0.67100    0.54810    0.56320    1.000
    H19      H        0.68900    0.58100    0.63000    1.000
    Cl3      Cl       0.56370    0.09450    0.98610    1.000
    N3       N        0.35910    0.01080    0.58890    1.000
    H20      H        0.25600    0.95300    0.60100    1.000
    H21      H        0.31800    0.03600    0.53100    1.000
    N4       N        0.63770    0.24460    0.57200    1.000
    H22      H        0.75800    0.28100    0.57800    1.000
    H23      H        0.60400    0.17800    0.51000    1.000
    C13      C        0.48000    0.10030    0.68120    1.000
    C14      C        0.62110    0.21400    0.67340    1.000
    C15      C        0.74360    0.30050    0.76590    1.000
    H24      H        0.83710    0.37910    0.76050    1.000
    C16      C        0.73010    0.27290    0.86530    1.000
    H25      H        0.81460    0.33170    0.92790    1.000
    C17      C        0.59370    0.15980    0.87310    1.000
    C18      C        0.46690    0.07330    0.78170    1.000
    H26      H        0.37200    0.99630    0.78830    1.000
    O9       O        0.98290    0.82620    0.60590    1.000
    O10      O        0.71220    0.83920    0.57290    1.000
    C19      C        0.87390    0.88830    0.61710    1.000
    C20      C        0.94760    0.03170    0.68250    1.000
    H27      H        0.92700    0.03480    0.75620    1.000
    H28      H        0.07670    0.07100    0.68390    1.000
    H29      H        0.88730    0.08340    0.65020    1.000
    O11      O        0.13220    0.61440    0.55940    1.000
    O12      O        0.41190    0.67700    0.64420    1.000
    C21      C        0.25140    0.66010    0.64620    1.000
    C22      C        0.19330    0.68960    0.75180    1.000
    H30      H        0.29590    0.71710    0.81100    1.000
    H31      H        0.14740    0.76270    0.75490    1.000
    H32      H        0.09860    0.60830    0.75840    1.000
    O13      O        0.89300    0.63830    0.37050    1.000
    O14      O        0.61170    0.62980    0.35460    1.000
    C23      C        0.74800    0.63350    0.31790    1.000
    C24      C        0.74000    0.62970    0.20070    1.000
    H33      H        0.64500    0.65990    0.17550    1.000
    H34      H        0.85550    0.68960    0.19060    1.000
    H35      H        0.71420    0.53710    0.15940    1.000
    Cl4      Cl       0.89100    0.40510    0.97800    1.000
    H36      H        0.58550    0.14020    0.94120    1.000
