# CIF file generated by openbabel 3.1.0, see https://openbabel.org
data_I
_chemical_name_common 'OCUGEZ_clean'
_cell_length_a 8.6266
_cell_length_b 9.919
_cell_length_c 11.694
_cell_angle_alpha 74.7
_cell_angle_beta 69.75
_cell_angle_gamma 85.92
_space_group_name_H-M_alt 'P 1'
_space_group_name_Hall 'P 1'
loop_
    _symmetry_equiv_pos_as_xyz
    x,y,z
loop_
    _atom_site_label
    _atom_site_type_symbol
    _atom_site_fract_x
    _atom_site_fract_y
    _atom_site_fract_z
    _atom_site_occupancy
    Nd1      Nd       0.24553    0.47759    0.01184    1.000
    Nd2      Nd       0.75447    0.52241    0.98816    1.000
    H1       H        0.23200    0.52570    0.32820    1.000
    H2       H        0.25290    0.68790    0.27440    1.000
    H3       H        0.40540    0.70250    0.39680    1.000
    H4       H        0.41530    0.53910    0.43880    1.000
    H5       H        0.12220    0.69080    0.50760    1.000
    H6       H        0.12430    0.52720    0.54330    1.000
    H7       H        0.29490    0.53910    0.66310    1.000
    H8       H        0.26690    0.70030    0.63730    1.000
    H9       H        0.25010    0.98250    0.21740    1.000
    H10      H        0.22020    0.97090    0.09540    1.000
    H11      H        0.47850    0.87950    0.10100    1.000
    H12      H        0.53430    0.02610    0.10200    1.000
    H13      H        0.76800    0.47430    0.67180    1.000
    H14      H        0.74710    0.31210    0.72560    1.000
    H15      H        0.59460    0.29750    0.60320    1.000
    H16      H        0.58470    0.46090    0.56120    1.000
    H17      H        0.87780    0.30920    0.49240    1.000
    H18      H        0.87570    0.47280    0.45670    1.000
    H19      H        0.70510    0.46090    0.33690    1.000
    H20      H        0.73310    0.29970    0.36270    1.000
    H21      H        0.74990    0.01750    0.78260    1.000
    H22      H        0.77980    0.02910    0.90460    1.000
    H23      H        0.52150    0.12050    0.89900    1.000
    H24      H        0.46570    0.97390    0.89800    1.000
    C1       C        0.45500    0.58460    0.19260    1.000
    C2       C        0.30850    0.60390    0.30260    1.000
    C3       C        0.34550    0.61540    0.41680    1.000
    C4       C        0.18780    0.61070    0.52860    1.000
    C5       C        0.21660    0.61110    0.64880    1.000
    C6       C        0.06470    0.58740    0.76420    1.000
    C7       C        0.26070    0.17220    0.09240    1.000
    C8       C        0.28700    0.01710    0.12630    1.000
    C9       C        0.46750    0.97950    0.07140    1.000
    C10      C        0.54500    0.41540    0.80740    1.000
    C11      C        0.69150    0.39610    0.69740    1.000
    C12      C        0.65450    0.38460    0.58320    1.000
    C13      C        0.81220    0.38930    0.47140    1.000
    C14      C        0.78340    0.38890    0.35120    1.000
    C15      C        0.93530    0.41260    0.23580    1.000
    C16      C        0.73930    0.82780    0.90760    1.000
    C17      C        0.71300    0.98290    0.87370    1.000
    C18      C        0.53250    0.02050    0.92860    1.000
    O1       O        0.43100    0.53530    0.11038    1.000
    O2       O        0.59980    0.61560    0.18011    1.000
    O3       O        0.07700    0.54410    0.87283    1.000
    O4       O        0.92360    0.60670    0.75410    1.000
    O5       O        0.36290    0.25380    0.09750    1.000
    O6       O        0.14100    0.21970    0.05770    1.000
    O7       O        0.56900    0.46470    0.88962    1.000
    O8       O        0.40020    0.38440    0.81989    1.000
    O9       O        0.92300    0.45590    0.12717    1.000
    O10      O        0.07640    0.39330    0.24590    1.000
    O11      O        0.63710    0.74620    0.90250    1.000
    O12      O        0.85900    0.78030    0.94230    1.000
