data_functionalizedCrystal
_audit_creation_method	'EQeq! by Chris Wilmer'
_symmetry_space_group_name_H-M	'P1'
_symmetry_Int_Tables_number	1
_symmetry_cell_setting	triclinic
loop_
_symmetry_equiv_pos_as_xyz
  x,y,z
_cell_length_a	9.49
_cell_length_b	12.0717
_cell_length_c	16.783
_cell_angle_alpha	96.0088
_cell_angle_beta	90
_cell_angle_gamma	113.146
loop_
_atom_site_label
_atom_site_type_symbol
_atom_site_fract_x
_atom_site_fract_y
_atom_site_fract_z
_atom_site_charge
Mof_Dy	Dy	0.30385	0.00935	0.43407	2.262
Mof_Dy	Dy	0.2945	0.99065	0.06593	2.271
Mof_Dy	Dy	0.70551	0.00936	0.93407	2.271
Mof_Dy	Dy	0.69616	0.99066	0.56593	2.262
Mof_Ag	Ag	0.71697	0.68462	0.42047	0.685
Mof_Ag	Ag	0.28303	0.31538	0.57953	0.685
Mof_Ag	Ag	0.03235	0.31538	0.07953	0.678
Mof_Ag	Ag	0.96765	0.68462	0.92047	0.678
Mof_H 	H 	0.4263	0.812	0.2215	0.052
Mof_H 	H 	0.6143	0.188	0.2785	0.054
Mof_H 	H 	0.4973	0.3666	0.115	-0.021
Mof_H 	H 	0.4345	0.4266	0.8688	0.099
Mof_H 	H 	0.1691	0.5828	0.0397	-0.041
Mof_H 	H 	0.3857	0.812	0.7215	0.054
Mof_H 	H 	0.0925	0.1996	0.2278	0.011
Mof_H 	H 	0.8309	0.4172	0.9603	-0.041
Mof_H 	H 	0.9617	0.096	0.3311	0.048
Mof_H 	H 	0.0587	0.3052	0.4439	-0.015
Mof_H 	H 	0.8657	0.904	0.1689	0.041
Mof_H 	H 	0.4137	0.5828	0.5397	-0.043
Mof_H 	H 	0.5027	0.6334	0.885	-0.021
Mof_H 	H 	0.1307	0.6334	0.385	-0.023
Mof_H 	H 	0.7535	0.6948	0.0561	-0.012
Mof_H 	H 	0.9413	0.6948	0.5561	-0.015
Mof_H 	H 	0.7571	0.2948	0.1813	-0.003
Mof_H 	H 	0.5377	0.2948	0.6813	-0.003
Mof_H 	H 	0.8929	0.8004	0.2722	0.018
Mof_H 	H 	0.9921	0.4266	0.3688	0.102
Mof_H 	H 	0.8693	0.3666	0.615	-0.023
Mof_H 	H 	0.2429	0.7052	0.8187	-0.003
Mof_H 	H 	0.1343	0.096	0.8311	0.041
Mof_H 	H 	0.0079	0.5734	0.6312	0.102
Mof_H 	H 	0.5863	0.4172	0.4603	-0.043
Mof_H 	H 	0.9075	0.8004	0.7722	0.011
Mof_H 	H 	0.1071	0.1996	0.7278	0.018
Mof_H 	H 	0.5737	0.188	0.7785	0.052
Mof_H 	H 	0.0383	0.904	0.6689	0.048
Mof_H 	H 	0.4623	0.7052	0.3187	-0.003
Mof_H 	H 	0.5655	0.5734	0.1312	0.099
Mof_H 	H 	0.2465	0.3052	0.9439	-0.012
Mof_C 	C 	0.7306	0.612	0.0509	0.122
Mof_C 	C 	0.643	0.8712	0.1848	-0.103
Mof_C 	C 	0.0357	0.0698	0.5105	0.264
Mof_C 	C 	0.2912	0.6316	0.4637	-0.259
Mof_C 	C 	0.4541	0.2512	0.7101	0.035
Mof_C 	C 	0.6109	0.236	0.5234	0.538
Mof_C 	C 	0.3798	0.0548	0.8783	0.47
Mof_C 	C 	0.5459	0.7488	0.2899	0.035
Mof_C 	C 	0.0053	0.8036	0.7622	0.038
Mof_C 	C 	0.9947	0.1964	0.2378	0.038
Mof_C 	C 	0.7983	0.8036	0.2622	0.022
Mof_C 	C 	0.0834	0.8662	0.6999	-0.033
Mof_C 	C 	0.5224	0.8108	0.2305	-0.037
Mof_C 	C 	0.9643	0.9302	0.4895	0.264
Mof_C 	C 	0.7749	0.4484	0.9944	0.131
Mof_C 	C 	0.7718	0.1288	0.3152	-0.096
Mof_C 	C 	0.2221	0.9296	0.2457	0.266
Mof_C 	C 	0.3265	0.5516	0.5056	0.137
Mof_C 	C 	0.3837	0.4606	0.9045	-0.214
Mof_C 	C 	0.2884	0.8108	0.7305	-0.041
Mof_C 	C 	0.2282	0.8712	0.6848	-0.096
Mof_C 	C 	0.1608	0.5832	0.4129	0.154
Mof_C 	C 	0.6251	0.236	0.0234	0.542
Mof_C 	C 	0.3404	0.6316	0.9637	-0.254
Mof_C 	C 	0.357	0.1288	0.8152	-0.103
Mof_C 	C 	0.7075	0.9296	0.7457	0.263
Mof_C 	C 	0.7116	0.1892	0.2695	-0.041
Mof_C 	C 	0.8392	0.4168	0.5871	0.154
Mof_C 	C 	0.6202	0.9452	0.1217	0.47
Mof_C 	C 	0.3891	0.764	0.4766	0.538
Mof_C 	C 	0.325	0.9452	0.6217	0.468
Mof_C 	C 	0.6163	0.5394	0.0955	-0.214
Mof_C 	C 	0.8814	0.612	0.5509	0.127
Mof_C 	C 	0.2251	0.5516	0.0056	0.131
Mof_C 	C 	0.2172	0.1338	0.8001	-0.025
Mof_C 	C 	0.2925	0.0704	0.2543	0.263
Mof_C 	C 	0.5776	0.4168	0.0871	0.149
Mof_C 	C 	0.675	0.0548	0.3783	0.469
Mof_C 	C 	0.7971	0.2512	0.2101	0.039
Mof_C 	C 	0.6596	0.3684	0.0363	-0.254
Mof_C 	C 	0.4224	0.5832	0.9129	0.149
Mof_C 	C 	0.6735	0.4484	0.4944	0.137
Mof_C 	C 	0.3749	0.764	0.9766	0.542
Mof_C 	C 	0.2694	0.388	0.9491	0.122
Mof_C 	C 	0.9166	0.1338	0.3001	-0.033
Mof_C 	C 	0.0769	0.4606	0.4045	-0.222
Mof_C 	C 	0.2029	0.7488	0.7899	0.039
Mof_C 	C 	0.7828	0.8662	0.1999	-0.025
Mof_C 	C 	0.4776	0.1892	0.7695	-0.037
Mof_C 	C 	0.9231	0.5394	0.5955	-0.222
Mof_C 	C 	0.1186	0.388	0.4491	0.127
Mof_C 	C 	0.2017	0.1964	0.7378	0.022
Mof_C 	C 	0.7779	0.0704	0.7543	0.266
Mof_C 	C 	0.0341	0.0698	0.0105	0.267
Mof_C 	C 	0.9659	0.9302	0.9895	0.267
Mof_C 	C 	0.7088	0.3684	0.5363	-0.259
Mof_N 	N 	0.3187	0.2524	0.6918	-0.196
Mof_N 	N 	0.0663	0.7476	0.8082	-0.197
Mof_N 	N 	0.8097	0.5678	0.0006	-0.23
Mof_N 	N 	0.9337	0.2524	0.1918	-0.197
Mof_N 	N 	0.1903	0.4322	0.9994	-0.23
Mof_N 	N 	0.6813	0.7476	0.3082	-0.196
Mof_N 	N 	0.7581	0.5678	0.5006	-0.234
Mof_N 	N 	0.2419	0.4322	0.4994	-0.234
Mof_O 	O 	0.0339	0.8742	0.0207	-0.485
Mof_O 	O 	0.2099	0.881	0.3086	-0.429
Mof_O 	O 	0.4631	0.9624	0.6226	-0.556
Mof_O 	O 	0.9651	0.115	0.5575	-0.45
Mof_O 	O 	0.2753	0.7974	0.0083	-0.57
Mof_O 	O 	0.7413	0.014	0.4274	-0.509
Mof_O 	O 	0.6711	0.881	0.8086	-0.43
Mof_O 	O 	0.0349	0.885	0.4425	-0.449
Mof_O 	O 	0.3048	0.123	0.3244	-0.437
Mof_O 	O 	0.4779	0.2026	0.4917	-0.567
Mof_O 	O 	0.6697	0.1668	0.5449	-0.582
Mof_O 	O 	0.7273	0.986	0.0726	-0.515
Mof_O 	O 	0.5029	0.8332	0.9551	-0.583
Mof_O 	O 	0.7247	0.2026	0.9917	-0.57
Mof_O 	O 	0.2727	0.014	0.9274	-0.515
Mof_O 	O 	0.5221	0.7974	0.5083	-0.567
Mof_O 	O 	0.6952	0.877	0.6756	-0.437
Mof_O 	O 	0.1499	0.115	0.0575	-0.456
Mof_O 	O 	0.1597	0.1258	0.4793	-0.486
Mof_O 	O 	0.1818	0.877	0.1756	-0.438
Mof_O 	O 	0.5007	0.0376	0.8774	-0.559
Mof_O 	O 	0.5369	0.0376	0.3774	-0.556
Mof_O 	O 	0.9661	0.1258	0.9793	-0.485
Mof_O 	O 	0.8501	0.885	0.9425	-0.456
Mof_O 	O 	0.8182	0.123	0.8244	-0.438
Mof_O 	O 	0.2587	0.986	0.5726	-0.509
Mof_O 	O 	0.3303	0.8332	0.4551	-0.582
Mof_O 	O 	0.7901	0.119	0.6914	-0.429
Mof_O 	O 	0.4971	0.1668	0.0449	-0.583
Mof_O 	O 	0.8403	0.8742	0.5207	-0.486
Mof_O 	O 	0.3289	0.119	0.1914	-0.43
Mof_O 	O 	0.4993	0.9624	0.1226	-0.559
_end
