# CIF file generated by openbabel 3.1.0, see https://openbabel.org
data_I
_chemical_name_common 'image0'
_cell_length_a 10.8783
_cell_length_b 28.3945
_cell_length_c 9.2141
_cell_angle_alpha 90
_cell_angle_beta 90
_cell_angle_gamma 90
_space_group_name_H-M_alt 'P 1'
_space_group_name_Hall 'P 1'
loop_
    _symmetry_equiv_pos_as_xyz
    x,y,z
loop_
    _atom_site_label
    _atom_site_type_symbol
    _atom_site_fract_x
    _atom_site_fract_y
    _atom_site_fract_z
    _atom_site_occupancy
    Ba1      Ba       0.14080    0.44519    0.02788    1.000
    Li1      Li       0.41000    0.16130    0.84250    1.000
    Li2      Li       0.41820    0.38530    0.94090    1.000
    Li3      Li       0.72230    0.43960    0.08840    1.000
    O1       O        0.07470    0.34533    0.07850    1.000
    O2       O        0.26580    0.35896    0.00250    1.000
    O3       O        0.08230    0.13693    0.04340    1.000
    O4       O        0.26260    0.12653    0.92860    1.000
    O5       O        0.42130    0.44529    0.06140    1.000
    O6       O        0.58210    0.45078    0.21160    1.000
    O7       O        0.17200    0.41855    0.72660    1.000
    O8       O        0.37480    0.42055    0.76810    1.000
    O9       O        0.72670    0.47477    0.90490    1.000
    O10      O        0.92340    0.45523    0.88530    1.000
    O11      O        0.84700    0.47275    0.19240    1.000
    O12      O        0.00880    0.43460    0.28200    1.000
    N1       N        0.29970    0.26627    0.93480    1.000
    H1       H        0.35500    0.28550    0.89810    1.000
    N2       N        0.30350    0.21928    0.92070    1.000
    N3       N        0.26850    0.42856    0.29180    1.000
    N4       N        0.22170    0.42172    0.42420    1.000
    H2       H        0.14300    0.41720    0.44120    1.000
    N5       N        0.70100    0.46605    0.60500    1.000
    N6       N        0.73020    0.46405    0.46340    1.000
    H3       H        0.67660    0.46820    0.39300    1.000
    C1       C        0.17930    0.33220    0.03440    1.000
    C2       C        0.20110    0.28053    0.01200    1.000
    C3       C        0.13740    0.24067    0.05160    1.000
    H4       H        0.06410    0.23890    0.10750    1.000
    C4       C        0.20420    0.20350    0.99170    1.000
    C5       C        0.18070    0.15140    0.98920    1.000
    C6       C        0.47030    0.44411    0.18550    1.000
    C7       C        0.38960    0.43380    0.31150    1.000
    C8       C        0.41900    0.43006    0.45980    1.000
    H5       H        0.49820    0.43220    0.50270    1.000
    C9       C        0.30870    0.42258    0.52970    1.000
    C10      C        0.28050    0.41952    0.68680    1.000
    C11      C        0.82080    0.46200    0.83240    1.000
    C12      C        0.80890    0.45850    0.67250    1.000
    C13      C        0.90410    0.45118    0.57490    1.000
    H6       H        0.98790    0.44490    0.59660    1.000
    C14      C        0.85150    0.45499    0.44070    1.000
    C15      C        0.90640    0.45372    0.29350    1.000
    Ba2      Ba       0.85920    0.55481    0.02788    1.000
    Li4      Li       0.59000    0.83870    0.84250    1.000
    Li5      Li       0.58180    0.61470    0.94090    1.000
    Li6      Li       0.27770    0.56040    0.08840    1.000
    O13      O        0.92530    0.65467    0.07850    1.000
    O14      O        0.73420    0.64104    0.00250    1.000
    O15      O        0.91770    0.86307    0.04340    1.000
    O16      O        0.73740    0.87347    0.92860    1.000
    O17      O        0.57870    0.55471    0.06140    1.000
    O18      O        0.41790    0.54922    0.21160    1.000
    O19      O        0.82800    0.58145    0.72660    1.000
    O20      O        0.62520    0.57945    0.76810    1.000
    O21      O        0.27330    0.52523    0.90490    1.000
    O22      O        0.07660    0.54477    0.88530    1.000
    O23      O        0.15300    0.52725    0.19240    1.000
    O24      O        0.99120    0.56540    0.28200    1.000
    N7       N        0.70030    0.73373    0.93480    1.000
    H7       H        0.64500    0.71450    0.89810    1.000
    N8       N        0.69650    0.78072    0.92070    1.000
    N9       N        0.73150    0.57144    0.29180    1.000
    N10      N        0.77830    0.57828    0.42420    1.000
    H8       H        0.85700    0.58280    0.44120    1.000
    N11      N        0.29900    0.53395    0.60500    1.000
    N12      N        0.26980    0.53595    0.46340    1.000
    H9       H        0.32340    0.53180    0.39300    1.000
    C16      C        0.82070    0.66780    0.03440    1.000
    C17      C        0.79890    0.71947    0.01200    1.000
    C18      C        0.86260    0.75933    0.05160    1.000
    H10      H        0.93590    0.76110    0.10750    1.000
    C19      C        0.79580    0.79650    0.99170    1.000
    C20      C        0.81930    0.84860    0.98920    1.000
    C21      C        0.52970    0.55589    0.18550    1.000
    C22      C        0.61040    0.56620    0.31150    1.000
    C23      C        0.58100    0.56994    0.45980    1.000
    H11      H        0.50180    0.56780    0.50270    1.000
    C24      C        0.69130    0.57742    0.52970    1.000
    C25      C        0.71950    0.58048    0.68680    1.000
    C26      C        0.17920    0.53800    0.83240    1.000
    C27      C        0.19110    0.54150    0.67250    1.000
    C28      C        0.09590    0.54882    0.57490    1.000
    H12      H        0.01210    0.55510    0.59660    1.000
    C29      C        0.14850    0.54501    0.44070    1.000
    C30      C        0.09360    0.54628    0.29350    1.000
    Ba3      Ba       0.35920    0.94519    0.97212    1.000
    Li7      Li       0.09000    0.66130    0.15750    1.000
    Li8      Li       0.08180    0.88530    0.05910    1.000
    Li9      Li       0.77770    0.93960    0.91160    1.000
    O25      O        0.42530    0.84533    0.92150    1.000
    O26      O        0.23420    0.85896    0.99750    1.000
    O27      O        0.41770    0.63693    0.95660    1.000
    O28      O        0.23740    0.62653    0.07140    1.000
    O29      O        0.07870    0.94529    0.93860    1.000
    O30      O        0.91790    0.95078    0.78840    1.000
    O31      O        0.32800    0.91855    0.27340    1.000
    O32      O        0.12520    0.92055    0.23190    1.000
    O33      O        0.77330    0.97477    0.09510    1.000
    O34      O        0.57660    0.95523    0.11470    1.000
    O35      O        0.65300    0.97275    0.80760    1.000
    O36      O        0.49120    0.93460    0.71800    1.000
    N13      N        0.20030    0.76627    0.06520    1.000
    H13      H        0.14500    0.78550    0.10190    1.000
    N14      N        0.19650    0.71928    0.07930    1.000
    N15      N        0.23150    0.92856    0.70820    1.000
    N16      N        0.27830    0.92172    0.57580    1.000
    H14      H        0.35700    0.91720    0.55880    1.000
    N17      N        0.79900    0.96605    0.39500    1.000
    N18      N        0.76980    0.96405    0.53660    1.000
    H15      H        0.82340    0.96820    0.60700    1.000
    C31      C        0.32070    0.83220    0.96560    1.000
    C32      C        0.29890    0.78053    0.98800    1.000
    C33      C        0.36260    0.74067    0.94840    1.000
    H16      H        0.43590    0.73890    0.89250    1.000
    C34      C        0.29580    0.70350    0.00830    1.000
    C35      C        0.31930    0.65140    0.01080    1.000
    C36      C        0.02970    0.94411    0.81450    1.000
    C37      C        0.11040    0.93380    0.68850    1.000
    C38      C        0.08100    0.93006    0.54020    1.000
    H17      H        0.00180    0.93220    0.49730    1.000
    C39      C        0.19130    0.92258    0.47030    1.000
    C40      C        0.21950    0.91952    0.31320    1.000
    C41      C        0.67920    0.96200    0.16760    1.000
    C42      C        0.69110    0.95850    0.32750    1.000
    C43      C        0.59590    0.95118    0.42510    1.000
    H18      H        0.51210    0.94490    0.40340    1.000
    C44      C        0.64850    0.95499    0.55930    1.000
    C45      C        0.59360    0.95372    0.70650    1.000
    Ba4      Ba       0.64080    0.05481    0.97212    1.000
    Li10     Li       0.91000    0.33870    0.15750    1.000
    Li11     Li       0.91820    0.11470    0.05910    1.000
    Li12     Li       0.22230    0.06040    0.91160    1.000
    O37      O        0.57470    0.15467    0.92150    1.000
    O38      O        0.76580    0.14104    0.99750    1.000
    O39      O        0.58230    0.36307    0.95660    1.000
    O40      O        0.76260    0.37347    0.07140    1.000
    O41      O        0.92130    0.05471    0.93860    1.000
    O42      O        0.08210    0.04922    0.78840    1.000
    O43      O        0.67200    0.08145    0.27340    1.000
    O44      O        0.87480    0.07945    0.23190    1.000
    O45      O        0.22670    0.02523    0.09510    1.000
    O46      O        0.42340    0.04477    0.11470    1.000
    O47      O        0.34700    0.02725    0.80760    1.000
    O48      O        0.50880    0.06540    0.71800    1.000
    N19      N        0.79970    0.23373    0.06520    1.000
    H19      H        0.85500    0.21450    0.10190    1.000
    N20      N        0.80350    0.28072    0.07930    1.000
    N21      N        0.76850    0.07144    0.70820    1.000
    N22      N        0.72170    0.07828    0.57580    1.000
    H20      H        0.64300    0.08280    0.55880    1.000
    N23      N        0.20100    0.03395    0.39500    1.000
    N24      N        0.23020    0.03595    0.53660    1.000
    H21      H        0.17660    0.03180    0.60700    1.000
    C46      C        0.67930    0.16780    0.96560    1.000
    C47      C        0.70110    0.21947    0.98800    1.000
    C48      C        0.63740    0.25933    0.94840    1.000
    H22      H        0.56410    0.26110    0.89250    1.000
    C49      C        0.70420    0.29650    0.00830    1.000
    C50      C        0.68070    0.34860    0.01080    1.000
    C51      C        0.97030    0.05589    0.81450    1.000
    C52      C        0.88960    0.06620    0.68850    1.000
    C53      C        0.91900    0.06994    0.54020    1.000
    H23      H        0.99820    0.06780    0.49730    1.000
    C54      C        0.80870    0.07742    0.47030    1.000
    C55      C        0.78050    0.08048    0.31320    1.000
    C56      C        0.32080    0.03800    0.16760    1.000
    C57      C        0.30890    0.04150    0.32750    1.000
    C58      C        0.40410    0.04882    0.42510    1.000
    H24      H        0.48790    0.05510    0.40340    1.000
    C59      C        0.35150    0.04501    0.55930    1.000
    C60      C        0.40640    0.04628    0.70650    1.000
    Ba5      Ba       0.50000    0.50000    0.82337    1.000
    Ba6      Ba       0.00000    0.00000    0.17663    1.000
