data_functionalizedCrystal
_audit_creation_method	'EQeq! by Chris Wilmer'
_symmetry_space_group_name_H-M	'P1'
_symmetry_Int_Tables_number	1
_symmetry_cell_setting	triclinic
loop_
_symmetry_equiv_pos_as_xyz
  x,y,z
_cell_length_a	7.7389
_cell_length_b	7.7389
_cell_length_c	27.1545
_cell_angle_alpha	90
_cell_angle_beta	90
_cell_angle_gamma	120
loop_
_atom_site_label
_atom_site_type_symbol
_atom_site_fract_x
_atom_site_fract_y
_atom_site_fract_z
_atom_site_charge
Mof_O 	O 	0.5731	0.375	0.36702	-0.214
Mof_O 	O 	0.68	0.1863	0.33289	-0.231
Mof_H 	H 	0.886	0.314	0.409	0.291
Mof_C 	C 	0.6584	0.274	0.36937	0.482
Mof_O 	O 	0.625	0.1981	0.70035	-0.213
Mof_O 	O 	0.8137	0.4937	0.66622	-0.231
Mof_H 	H 	0.686	0.572	0.74233	0.291
Mof_C 	C 	0.726	0.3844	0.7027	0.482
Mof_O 	O 	0.8019	0.4269	0.03369	-0.213
Mof_O 	O 	0.5063	0.32	0.99956	-0.23
Mof_H 	H 	0.428	0.114	0.07567	0.291
Mof_C 	C 	0.6156	0.3416	0.03604	0.482
Mof_O 	O 	0.4269	0.625	0.86702	-0.214
Mof_O 	O 	0.32	0.8137	0.83289	-0.231
Mof_H 	H 	0.114	0.686	0.909	0.291
Mof_C 	C 	0.3416	0.726	0.86937	0.482
Mof_O 	O 	0.375	0.8019	0.20035	-0.213
Mof_O 	O 	0.1863	0.5063	0.16622	-0.231
Mof_H 	H 	0.314	0.428	0.24233	0.291
Mof_C 	C 	0.274	0.6156	0.2027	0.482
Mof_O 	O 	0.1981	0.5731	0.53369	-0.213
Mof_O 	O 	0.4937	0.68	0.49956	-0.231
Mof_H 	H 	0.572	0.886	0.57567	0.291
Mof_C 	C 	0.3844	0.6584	0.53604	0.482
Mof_O 	O 	0.375	0.5731	0.96631	-0.214
Mof_O 	O 	0.1863	0.68	0.00044	-0.231
Mof_H 	H 	0.314	0.886	0.92433	0.291
Mof_C 	C 	0.274	0.6584	0.96396	0.482
Mof_O 	O 	0.1981	0.625	0.63298	-0.213
Mof_O 	O 	0.4937	0.8137	0.66711	-0.231
Mof_H 	H 	0.572	0.686	0.591	0.292
Mof_C 	C 	0.3844	0.726	0.63063	0.482
Mof_O 	O 	0.4269	0.8019	0.29965	-0.213
Mof_O 	O 	0.32	0.5063	0.33378	-0.231
Mof_H 	H 	0.114	0.428	0.25767	0.291
Mof_C 	C 	0.3416	0.6156	0.2973	0.482
Mof_O 	O 	0.625	0.4269	0.46631	-0.214
Mof_O 	O 	0.8137	0.32	0.50044	-0.231
Mof_H 	H 	0.686	0.114	0.42433	0.292
Mof_C 	C 	0.726	0.3416	0.46396	0.482
Mof_O 	O 	0.8019	0.375	0.13298	-0.213
Mof_O 	O 	0.5063	0.1863	0.16711	-0.231
Mof_H 	H 	0.428	0.314	0.091	0.291
Mof_C 	C 	0.6156	0.274	0.13063	0.482
Mof_O 	O 	0.5731	0.1981	0.79965	-0.213
Mof_O 	O 	0.68	0.4937	0.83378	-0.231
Mof_H 	H 	0.886	0.572	0.75767	0.291
Mof_C 	C 	0.6584	0.3844	0.7973	0.482
Mof_U 	U 	0.45237	0.54762	0.41667	0.023
Mof_C 	C 	0.7476	0.2524	0.41667	-0.68
Mof_U 	U 	0.45237	0.90475	0.75	0.021
Mof_C 	C 	0.7476	0.4952	0.75	-0.679
Mof_U 	U 	0.09525	0.54762	0.08333	0.022
Mof_C 	C 	0.5048	0.2524	0.08333	-0.68
Mof_U 	U 	0.54762	0.45237	0.91667	0.023
Mof_C 	C 	0.2524	0.7476	0.91667	-0.68
Mof_U 	U 	0.54762	0.09525	0.25	0.021
Mof_C 	C 	0.2524	0.5048	0.25	-0.679
Mof_U 	U 	0.90475	0.45237	0.58333	0.021
Mof_C 	C 	0.4952	0.7476	0.58333	-0.68
_end
