# CIF file generated by openbabel 3.1.0, see https://openbabel.org
data_I
_chemical_name_common 'image0'
_cell_length_a 13.0022
_cell_length_b 13.3793
_cell_length_c 25.8929
_cell_angle_alpha 84.06
_cell_angle_beta 88.104
_cell_angle_gamma 66.361
_space_group_name_H-M_alt 'P 1'
_space_group_name_Hall 'P 1'
loop_
    _symmetry_equiv_pos_as_xyz
    x,y,z
loop_
    _atom_site_label
    _atom_site_type_symbol
    _atom_site_fract_x
    _atom_site_fract_y
    _atom_site_fract_z
    _atom_site_occupancy
    Tb1      Tb       0.62516    0.30672    0.50582    1.000
    Tb2      Tb       0.84212    0.62555    0.04299    1.000
    C1       C        0.80940    0.71190    0.13810    1.000
    C2       C        0.79150    0.75900    0.18920    1.000
    C3       C        0.80120    0.85840    0.19330    1.000
    H1       H        0.82340    0.89380    0.16510    1.000
    C4       C        0.76100    0.70400    0.23200    1.000
    H2       H        0.75830    0.63640    0.22890    1.000
    C5       C        0.73480    0.74950    0.27910    1.000
    H3       H        0.71270    0.71420    0.30730    1.000
    C6       C        0.74230    0.84900    0.28270    1.000
    C7       C        0.77720    0.90240    0.24040    1.000
    C8       C        0.78070    0.00880    0.25510    1.000
    C9       C        0.70560    0.10910    0.21970    1.000
    H4       H        0.73210    0.10190    0.18470    1.000
    H5       H        0.70790    0.17410    0.23120    1.000
    H6       H        0.62970    0.11430    0.22100    1.000
    C10      C        0.90210    0.00050    0.25370    1.000
    H7       H        0.94840    0.93710    0.27570    1.000
    H8       H        0.90430    0.06510    0.26580    1.000
    H9       H        0.92940    0.99400    0.21870    1.000
    C11      C        0.73760    0.01080    0.31070    1.000
    C12      C        0.71580    0.91830    0.32580    1.000
    C13      C        0.67390    0.90280    0.37510    1.000
    H10      H        0.65800    0.84160    0.38480    1.000
    C14      C        0.65650    0.98270    0.40930    1.000
    H11      H        0.62810    0.97480    0.44220    1.000
    C15      C        0.72210    0.08850    0.34500    1.000
    H12      H        0.73850    0.14940    0.33530    1.000
    C16      C        0.68130    0.07350    0.39460    1.000
    C17      C        0.66690    0.15430    0.43310    1.000
    C18      C        0.57610    0.20080    0.62240    1.000
    C19      C        0.63840    0.13830    0.67150    1.000
    C20      C        0.57910    0.13040    0.71630    1.000
    H13      H        0.50110    0.16430    0.71630    1.000
    C21      C        0.75550    0.08690    0.67150    1.000
    H14      H        0.79420    0.09190    0.64110    1.000
    C22      C        0.81500    0.02850    0.71600    1.000
    H15      H        0.89300    0.99490    0.71590    1.000
    C23      C        0.75500    0.02140    0.76110    1.000
    C24      C        0.63760    0.07120    0.76100    1.000
    C25      C        0.58980    0.04690    0.81310    1.000
    C26      C        0.51550    0.98480    0.80660    1.000
    H16      H        0.55790    0.91870    0.79080    1.000
    H17      H        0.45200    0.03000    0.78490    1.000
    H18      H        0.48990    0.96660    0.84000    1.000
    C27      C        0.52590    0.15140    0.83920    1.000
    H19      H        0.49870    0.13290    0.87220    1.000
    H20      H        0.46360    0.19960    0.81760    1.000
    H21      H        0.57500    0.18730    0.84440    1.000
    C28      C        0.69670    0.97470    0.84280    1.000
    C29      C        0.79300    0.96390    0.81330    1.000
    C30      C        0.90010    0.90210    0.83380    1.000
    H22      H        0.96360    0.89670    0.81470    1.000
    C31      C        0.70830    0.91990    0.89200    1.000
    H23      H        0.64490    0.92660    0.91140    1.000
    C32      C        0.91000    0.84900    0.88340    1.000
    H24      H        0.98110    0.80860    0.89780    1.000
    C33      C        0.81500    0.85470    0.91240    1.000
    C34      C        0.82540    0.78770    0.96310    1.000
    C35      C        0.87830    0.50260    0.92870    1.000
    C36      C        0.80910    0.51940    0.88050    1.000
    C37      C        0.84210    0.44020    0.84510    1.000
    H25      H        0.90530    0.37530    0.85160    1.000
    C38      C        0.71550    0.61540    0.87070    1.000
    H26      H        0.69340    0.66650    0.89500    1.000
    C39      C        0.65340    0.63730    0.82520    1.000
    H27      H        0.59130    0.70310    0.81850    1.000
    C40      C        0.68580    0.55910    0.78980    1.000
    C41      C        0.77860    0.46020    0.79970    1.000
    C42      C        0.79360    0.38640    0.75690    1.000
    C43      C        0.90900    0.34190    0.73400    1.000
    H28      H        0.92230    0.40390    0.71850    1.000
    H29      H        0.91390    0.29410    0.70800    1.000
    H30      H        0.96420    0.30290    0.76070    1.000
    C44      C        0.76430    0.28750    0.77810    1.000
    H31      H        0.81340    0.24670    0.80670    1.000
    H32      H        0.77380    0.24070    0.75100    1.000
    H33      H        0.68790    0.31410    0.78950    1.000
    C45      C        0.70310    0.46220    0.71820    1.000
    C46      C        0.63990    0.56110    0.73860    1.000
    C47      C        0.54950    0.64180    0.71040    1.000
    H34      H        0.50570    0.70690    0.72420    1.000
    C48      C        0.52680    0.62240    0.66140    1.000
    H35      H        0.46770    0.67600    0.64200    1.000
    C49      C        0.67810    0.44390    0.66920    1.000
    H36      H        0.72010    0.37790    0.65570    1.000
    C50      C        0.59020    0.52470    0.64060    1.000
    C51      C        0.56150    0.50500    0.58780    1.000
    O1       O        0.81950    0.76870    0.09730    1.000
    O2       O        0.81230    0.61700    0.13571    1.000
    O3       O        0.71790    0.21730    0.42703    1.000
    O4       O        0.60390    0.15620    0.47214    1.000
    O5       O        0.63270    0.19270    0.58138    1.000
    O6       O        0.47180    0.25630    0.62540    1.000
    O7       O        0.92270    0.72440    0.98093    1.000
    O8       O        0.73850    0.79120    0.98691    1.000
    O9       O        0.83670    0.56310    0.96345    1.000
    O10      O        0.97580    0.42880    0.93004    1.000
    O11      O        0.48870    0.58350    0.56091    1.000
    O12      O        0.61170    0.41180    0.57347    1.000
    Tb3      Tb       0.37484    0.69328    0.49418    1.000
    Tb4      Tb       0.15788    0.37445    0.95701    1.000
    C52      C        0.19060    0.28810    0.86190    1.000
    C53      C        0.20850    0.24100    0.81080    1.000
    C54      C        0.19880    0.14160    0.80670    1.000
    H37      H        0.17660    0.10620    0.83490    1.000
    C55      C        0.23900    0.29600    0.76800    1.000
    H38      H        0.24170    0.36360    0.77110    1.000
    C56      C        0.26520    0.25050    0.72090    1.000
    H39      H        0.28730    0.28580    0.69270    1.000
    C57      C        0.25770    0.15100    0.71730    1.000
    C58      C        0.22280    0.09760    0.75960    1.000
    C59      C        0.21930    0.99120    0.74490    1.000
    C60      C        0.29440    0.89090    0.78030    1.000
    H40      H        0.26790    0.89810    0.81530    1.000
    H41      H        0.29210    0.82590    0.76880    1.000
    H42      H        0.37030    0.88570    0.77900    1.000
    C61      C        0.09790    0.99950    0.74630    1.000
    H43      H        0.05160    0.06290    0.72430    1.000
    H44      H        0.09570    0.93490    0.73420    1.000
    H45      H        0.07060    0.00600    0.78130    1.000
    C62      C        0.26240    0.98920    0.68930    1.000
    C63      C        0.28420    0.08170    0.67420    1.000
    C64      C        0.32610    0.09720    0.62490    1.000
    H46      H        0.34200    0.15840    0.61520    1.000
    C65      C        0.34350    0.01730    0.59070    1.000
    H47      H        0.37190    0.02520    0.55780    1.000
    C66      C        0.27790    0.91150    0.65500    1.000
    H48      H        0.26150    0.85060    0.66470    1.000
    C67      C        0.31870    0.92650    0.60540    1.000
    C68      C        0.33310    0.84570    0.56690    1.000
    C69      C        0.42390    0.79920    0.37760    1.000
    C70      C        0.36160    0.86170    0.32850    1.000
    C71      C        0.42090    0.86960    0.28370    1.000
    H49      H        0.49890    0.83570    0.28370    1.000
    C72      C        0.24450    0.91310    0.32850    1.000
    H50      H        0.20580    0.90810    0.35890    1.000
    C73      C        0.18500    0.97150    0.28400    1.000
    H51      H        0.10700    0.00510    0.28410    1.000
    C74      C        0.24500    0.97860    0.23890    1.000
    C75      C        0.36240    0.92880    0.23900    1.000
    C76      C        0.41020    0.95310    0.18690    1.000
    C77      C        0.48450    0.01520    0.19340    1.000
    H52      H        0.44210    0.08130    0.20920    1.000
    H53      H        0.54800    0.97000    0.21510    1.000
    H54      H        0.51010    0.03340    0.16000    1.000
    C78      C        0.47410    0.84860    0.16080    1.000
    H55      H        0.50130    0.86710    0.12780    1.000
    H56      H        0.53640    0.80040    0.18240    1.000
    H57      H        0.42500    0.81270    0.15560    1.000
    C79      C        0.30330    0.02530    0.15720    1.000
    C80      C        0.20700    0.03610    0.18670    1.000
    C81      C        0.09990    0.09790    0.16620    1.000
    H58      H        0.03640    0.10330    0.18530    1.000
    C82      C        0.29170    0.08010    0.10800    1.000
    H59      H        0.35510    0.07340    0.08860    1.000
    C83      C        0.09000    0.15100    0.11660    1.000
    H60      H        0.01890    0.19140    0.10220    1.000
    C84      C        0.18500    0.14530    0.08760    1.000
    C85      C        0.17460    0.21230    0.03690    1.000
    C86      C        0.12170    0.49740    0.07130    1.000
    C87      C        0.19090    0.48060    0.11950    1.000
    C88      C        0.15790    0.55980    0.15490    1.000
    H61      H        0.09470    0.62470    0.14840    1.000
    C89      C        0.28450    0.38460    0.12930    1.000
    H62      H        0.30660    0.33350    0.10500    1.000
    C90      C        0.34660    0.36270    0.17480    1.000
    H63      H        0.40870    0.29690    0.18150    1.000
    C91      C        0.31420    0.44090    0.21020    1.000
    C92      C        0.22140    0.53980    0.20030    1.000
    C93      C        0.20640    0.61360    0.24310    1.000
    C94      C        0.09100    0.65810    0.26600    1.000
    H64      H        0.07770    0.59610    0.28150    1.000
    H65      H        0.08610    0.70590    0.29200    1.000
    H66      H        0.03580    0.69710    0.23930    1.000
    C95      C        0.23570    0.71250    0.22190    1.000
    H67      H        0.18660    0.75330    0.19330    1.000
    H68      H        0.22620    0.75930    0.24900    1.000
    H69      H        0.31210    0.68590    0.21050    1.000
    C96      C        0.29690    0.53780    0.28180    1.000
    C97      C        0.36010    0.43890    0.26140    1.000
    C98      C        0.45050    0.35820    0.28960    1.000
    H70      H        0.49430    0.29310    0.27580    1.000
    C99      C        0.47320    0.37760    0.33860    1.000
    H71      H        0.53230    0.32400    0.35800    1.000
    C100     C        0.32190    0.55610    0.33080    1.000
    H72      H        0.27990    0.62210    0.34430    1.000
    C101     C        0.40980    0.47530    0.35940    1.000
    C102     C        0.43850    0.49500    0.41220    1.000
    O13      O        0.18050    0.23130    0.90270    1.000
    O14      O        0.18770    0.38300    0.86429    1.000
    O15      O        0.28210    0.78270    0.57297    1.000
    O16      O        0.39610    0.84380    0.52786    1.000
    O17      O        0.36730    0.80730    0.41862    1.000
    O18      O        0.52820    0.74370    0.37460    1.000
    O19      O        0.07730    0.27560    0.01907    1.000
    O20      O        0.26150    0.20880    0.01309    1.000
    O21      O        0.16330    0.43690    0.03655    1.000
    O22      O        0.02420    0.57120    0.06996    1.000
    O23      O        0.51130    0.41650    0.43909    1.000
    O24      O        0.38830    0.58820    0.42653    1.000
