data_functionalizedCrystal
_audit_creation_method	'EQeq! by Chris Wilmer'
_symmetry_space_group_name_H-M	'P1'
_symmetry_Int_Tables_number	1
_symmetry_cell_setting	triclinic
loop_
_symmetry_equiv_pos_as_xyz
  x,y,z
_cell_length_a	7.6374
_cell_length_b	10.467
_cell_length_c	30.492
_cell_angle_alpha	99.05
_cell_angle_beta	90
_cell_angle_gamma	90
loop_
_atom_site_label
_atom_site_type_symbol
_atom_site_fract_x
_atom_site_fract_y
_atom_site_fract_z
_atom_site_charge
Mof_Nd	Nd	0.87182	0.55179	0.7681	2.685
Mof_Nd	Nd	0.37182	0.44821	0.7319	2.641
Mof_Nd	Nd	0.12818	0.44821	0.2319	2.631
Mof_Nd	Nd	0.62818	0.55179	0.2681	2.661
Mof_Co	Co	0.94619	0.71369	0.13011	1.163
Mof_Co	Co	0.44619	0.28631	0.36989	1.157
Mof_Co	Co	0.05381	0.28631	0.86989	1.149
Mof_Co	Co	0.55381	0.71369	0.63011	1.158
Mof_Co	Co	-0	0	-0	1.124
Mof_Co	Co	0.5	0	0.5	1.143
Mof_H 	H 	0.0552	0.7565	0.9183	0.061
Mof_H 	H 	0.6509	0.7997	0.8778	0.065
Mof_H 	H 	0.3781	0.1272	0.9858	0.029
Mof_H 	H 	0.3177	0.0777	0.217	0.063
Mof_H 	H 	0.9254	0.0251	0.1861	0.076
Mof_H 	H 	0.5294	0.6895	0.1242	-0.01
Mof_H 	H 	0.607	0.0351	0.9377	0.111
Mof_H 	H 	0.3119	0.8346	0.1601	0.132
Mof_H 	H 	0.5552	0.2435	0.5817	0.048
Mof_H 	H 	0.1509	0.2003	0.6222	0.07
Mof_H 	H 	0.8781	0.8728	0.5142	-0.027
Mof_H 	H 	0.8177	0.9223	0.283	0.039
Mof_H 	H 	0.4254	0.9749	0.3139	0.068
Mof_H 	H 	0.0294	0.3105	0.3758	-0.006
Mof_H 	H 	0.107	0.9649	0.5623	0.194
Mof_H 	H 	0.8119	0.1654	0.3399	0.119
Mof_H 	H 	0.9448	0.2435	0.0817	0.059
Mof_H 	H 	0.3491	0.2003	0.1222	0.051
Mof_H 	H 	0.6219	0.8728	0.0142	-0.03
Mof_H 	H 	0.6823	0.9223	0.783	0.048
Mof_H 	H 	0.0746	0.9749	0.8139	0.061
Mof_H 	H 	0.4706	0.3105	0.8758	-0.006
Mof_H 	H 	0.393	0.9649	0.0623	0.185
Mof_H 	H 	0.6881	0.1654	0.8399	0.122
Mof_H 	H 	0.4448	0.7565	0.4183	0.064
Mof_H 	H 	0.8491	0.7997	0.3778	0.061
Mof_H 	H 	0.1219	0.1272	0.4858	0.023
Mof_H 	H 	0.1823	0.0777	0.717	0.084
Mof_H 	H 	0.5746	0.0251	0.6861	0.063
Mof_H 	H 	0.9706	0.6895	0.6242	-0.009
Mof_H 	H 	0.893	0.0351	0.4377	0.112
Mof_H 	H 	0.1881	0.8346	0.6601	0.135
Mof_C 	C 	0.9704	0.7901	0.04461	0.218
Mof_C 	C 	0.0677	0.8951	0.07721	0.194
Mof_C 	C 	0.1507	0.5553	0.86095	0.487
Mof_C 	C 	0.2552	0.673	0.87909	-0.072
Mof_C 	C 	0.1745	0.7647	0.91042	-0.052
Mof_C 	C 	0.2751	0.8687	0.92973	0.055
Mof_C 	C 	0.4495	0.8822	0.91647	0.079
Mof_C 	C 	0.5319	0.7905	0.88586	-0.039
Mof_C 	C 	0.4332	0.6845	0.86744	-0.092
Mof_C 	C 	0.5135	0.5849	0.8332	0.498
Mof_C 	C 	0.3716	0.0475	0.9661	0.031
Mof_C 	C 	0.4983	0.2622	0.26696	0.421
Mof_C 	C 	0.5601	0.1579	0.23042	-0.074
Mof_C 	C 	0.4396	0.0668	0.21152	-0.12
Mof_C 	C 	0.5052	0.9586	0.18412	0.121
Mof_C 	C 	0.6852	0.9394	0.17557	0.08
Mof_C 	C 	0.8042	0.0346	0.1928	-0.11
Mof_C 	C 	0.7419	0.1432	0.21984	-0.068
Mof_C 	C 	0.8687	0.2486	0.23488	0.43
Mof_C 	C 	0.5521	0.7714	0.14154	0.119
Mof_C 	C 	0.4704	0.2099	0.45539	0.2
Mof_C 	C 	0.5677	0.1049	0.42279	0.208
Mof_C 	C 	0.6507	0.4447	0.63905	0.491
Mof_C 	C 	0.7552	0.327	0.62091	-0.094
Mof_C 	C 	0.6745	0.2353	0.58958	-0.035
Mof_C 	C 	0.7751	0.1313	0.57027	0.024
Mof_C 	C 	0.9495	0.1178	0.58353	0.112
Mof_C 	C 	0.0319	0.2095	0.61414	-0.105
Mof_C 	C 	0.9332	0.3155	0.63256	-0.05
Mof_C 	C 	0.0135	0.4151	0.6668	0.464
Mof_C 	C 	0.8716	0.9525	0.5339	0.219
Mof_C 	C 	0.9983	0.7378	0.23304	0.451
Mof_C 	C 	0.0601	0.8421	0.26958	-0.111
Mof_C 	C 	0.9396	0.9332	0.28848	0.021
Mof_C 	C 	0.0052	0.0414	0.31588	0.012
Mof_C 	C 	0.1852	0.0606	0.32443	0.015
Mof_C 	C 	0.3042	0.9654	0.3072	-0.012
Mof_C 	C 	0.2419	0.8568	0.28016	-0.065
Mof_C 	C 	0.3687	0.7514	0.26512	0.418
Mof_C 	C 	0.0521	0.2286	0.35846	0.106
Mof_C 	C 	0.0296	0.2099	0.95539	0.18
Mof_C 	C 	0.9323	0.1049	0.92279	0.23
Mof_C 	C 	0.8493	0.4447	0.13905	0.482
Mof_C 	C 	0.7448	0.327	0.12091	-0.072
Mof_C 	C 	0.8255	0.2353	0.08958	-0.055
Mof_C 	C 	0.7249	0.1313	0.07027	0.042
Mof_C 	C 	0.5505	0.1178	0.08353	0.07
Mof_C 	C 	0.4681	0.2095	0.11414	-0.051
Mof_C 	C 	0.5668	0.3155	0.13256	-0.095
Mof_C 	C 	0.4865	0.4151	0.1668	0.497
Mof_C 	C 	0.6284	0.9525	0.0339	0.209
Mof_C 	C 	0.5017	0.7378	0.73304	0.433
Mof_C 	C 	0.4399	0.8421	0.76958	-0.093
Mof_C 	C 	0.5604	0.9332	0.78848	-0.004
Mof_C 	C 	0.4948	0.0414	0.81588	0.036
Mof_C 	C 	0.3148	0.0606	0.82443	0.005
Mof_C 	C 	0.1958	0.9654	0.8072	-0.006
Mof_C 	C 	0.2581	0.8568	0.78016	-0.072
Mof_C 	C 	0.1313	0.7514	0.76512	0.409
Mof_C 	C 	0.4479	0.2286	0.85846	0.115
Mof_C 	C 	0.5296	0.7901	0.54461	0.205
Mof_C 	C 	0.4323	0.8951	0.57721	0.207
Mof_C 	C 	0.3493	0.5553	0.36095	0.483
Mof_C 	C 	0.2448	0.673	0.37909	-0.066
Mof_C 	C 	0.3255	0.7647	0.41042	-0.057
Mof_C 	C 	0.2249	0.8687	0.42973	0.057
Mof_C 	C 	0.0505	0.8822	0.41647	0.074
Mof_C 	C 	0.9681	0.7905	0.38586	-0.033
Mof_C 	C 	0.0668	0.6845	0.36744	-0.104
Mof_C 	C 	0.9865	0.5849	0.3332	0.509
Mof_C 	C 	0.1284	0.0475	0.4661	0.023
Mof_C 	C 	0.0017	0.2622	0.76696	0.37
Mof_C 	C 	0.9399	0.1579	0.73042	-0.015
Mof_C 	C 	0.0604	0.0668	0.71152	-0.183
Mof_C 	C 	0.9948	0.9586	0.68412	0.156
Mof_C 	C 	0.8148	0.9394	0.67557	0.061
Mof_C 	C 	0.6958	0.0346	0.6928	-0.088
Mof_C 	C 	0.7581	0.1432	0.71984	-0.092
Mof_C 	C 	0.6313	0.2486	0.73488	0.427
Mof_C 	C 	0.9479	0.7714	0.64154	0.124
Mof_N 	N 	0.2314	0.9731	0.96174	-0.192
Mof_N 	N 	0.5039	0.9989	0.93977	-0.15
Mof_N 	N 	0.7103	0.8201	0.14869	-0.232
Mof_N 	N 	0.4252	0.85	0.16144	-0.218
Mof_N 	N 	0.7314	0.0269	0.53826	-0.266
Mof_N 	N 	0.0039	0.0011	0.56023	-0.297
Mof_N 	N 	0.2103	0.1799	0.35131	-0.227
Mof_N 	N 	0.9252	0.15	0.33856	-0.192
Mof_N 	N 	0.7686	0.0269	0.03826	-0.267
Mof_N 	N 	0.4961	0.0011	0.06023	-0.28
Mof_N 	N 	0.2897	0.1799	0.85131	-0.228
Mof_N 	N 	0.5748	0.15	0.83856	-0.204
Mof_N 	N 	0.2686	0.9731	0.46174	-0.194
Mof_N 	N 	0.9961	0.9989	0.43977	-0.151
Mof_N 	N 	0.7897	0.8201	0.64869	-0.231
Mof_N 	N 	0.0748	0.85	0.66144	-0.23
Mof_O 	O 	0.1285	0.9903	0.06119	-0.345
Mof_O 	O 	0.9642	0.8031	0.00433	-0.345
Mof_O 	O 	0.0803	0.8778	0.11646	-0.366
Mof_O 	O 	0.9054	0.6996	0.06121	-0.348
Mof_O 	O 	0.1862	0.45508	0.87716	-0.463
Mof_O 	O 	0.0292	0.5656	0.83447	-0.64
Mof_O 	O 	0.4138	0.5087	0.80887	-0.627
Mof_O 	O 	0.6789	0.583	0.83023	-0.592
Mof_O 	O 	0.5393	0.2474	0.30509	-0.488
Mof_O 	O 	0.4101	0.35833	0.25723	-0.706
Mof_O 	O 	0.8146	0.36292	0.24952	-0.709
Mof_O 	O 	0.0313	0.22682	0.23093	-0.553
Mof_O 	O 	0.6285	0.0097	0.43881	-0.38
Mof_O 	O 	0.4642	0.1969	0.49567	-0.355
Mof_O 	O 	0.5803	0.1222	0.38354	-0.382
Mof_O 	O 	0.4054	0.3004	0.43879	-0.346
Mof_O 	O 	0.6862	0.54492	0.62284	-0.463
Mof_O 	O 	0.5292	0.4344	0.66553	-0.632
Mof_O 	O 	0.9138	0.4913	0.69113	-0.616
Mof_O 	O 	0.1789	0.417	0.66977	-0.587
Mof_O 	O 	0.0393	0.7526	0.19491	-0.496
Mof_O 	O 	0.9101	0.64167	0.24277	-0.711
Mof_O 	O 	0.3146	0.63708	0.25048	-0.708
Mof_O 	O 	0.5313	0.77318	0.26907	-0.536
Mof_O 	O 	0.8715	0.0097	0.93881	-0.37
Mof_O 	O 	0.0358	0.1969	0.99567	-0.346
Mof_O 	O 	0.9197	0.1222	0.88354	-0.378
Mof_O 	O 	0.0946	0.3004	0.93879	-0.342
Mof_O 	O 	0.8138	0.54492	0.12284	-0.46
Mof_O 	O 	0.9708	0.4344	0.16553	-0.622
Mof_O 	O 	0.5862	0.4913	0.19113	-0.629
Mof_O 	O 	0.3211	0.417	0.16977	-0.595
Mof_O 	O 	0.4607	0.7526	0.69491	-0.484
Mof_O 	O 	0.5899	0.64167	0.74277	-0.712
Mof_O 	O 	0.1854	0.63708	0.75048	-0.711
Mof_O 	O 	0.9687	0.77318	0.76907	-0.528
Mof_O 	O 	0.3715	0.9903	0.56119	-0.343
Mof_O 	O 	0.5358	0.8031	0.50433	-0.342
Mof_O 	O 	0.4197	0.8778	0.61646	-0.364
Mof_O 	O 	0.5946	0.6996	0.56121	-0.345
Mof_O 	O 	0.3138	0.45508	0.37716	-0.461
Mof_O 	O 	0.4708	0.5656	0.33447	-0.629
Mof_O 	O 	0.0862	0.5087	0.30887	-0.632
Mof_O 	O 	0.8211	0.583	0.33023	-0.595
Mof_O 	O 	0.9607	0.2474	0.80509	-0.459
Mof_O 	O 	0.0899	0.35833	0.75723	-0.701
Mof_O 	O 	0.6854	0.36292	0.74952	-0.713
Mof_O 	O 	0.4687	0.22682	0.73093	-0.546
_end
