data_functionalizedCrystal
_audit_creation_method	'EQeq! by Chris Wilmer'
_symmetry_space_group_name_H-M	'P1'
_symmetry_Int_Tables_number	1
_symmetry_cell_setting	triclinic
loop_
_symmetry_equiv_pos_as_xyz
  x,y,z
_cell_length_a	8.4856
_cell_length_b	9.5225
_cell_length_c	13.1281
_cell_angle_alpha	90
_cell_angle_beta	90
_cell_angle_gamma	94.62
loop_
_atom_site_label
_atom_site_type_symbol
_atom_site_fract_x
_atom_site_fract_y
_atom_site_fract_z
_atom_site_charge
Mof_Gd	Gd	0.96081	0.00811	0.76878	1.354
Mof_Gd	Gd	0.53919	0.49189	0.26878	1.38
Mof_Gd	Gd	0.03919	0.99189	0.23122	1.354
Mof_Gd	Gd	0.46081	0.50811	0.73122	1.38
Mof_C 	C 	0.475	0.1251	0.5493	-0.041
Mof_C 	C 	0.3818	0.0032	0.5747	-0.046
Mof_C 	C 	0.591	0.1243	0.474	-0.073
Mof_C 	C 	0.461	0.2568	0.6106	0.298
Mof_C 	C 	0.2463	0.0099	0.6477	0.309
Mof_C 	C 	0.7006	0.2573	0.4476	0.383
Mof_C 	C 	0.025	0.3749	0.0493	-0.037
Mof_C 	C 	0.1182	0.4968	0.0747	-0.048
Mof_C 	C 	0.909	0.3757	0.974	-0.078
Mof_C 	C 	0.039	0.2432	0.1106	0.297
Mof_C 	C 	0.2537	0.4901	0.1477	0.305
Mof_C 	C 	0.7994	0.2427	0.9476	0.381
Mof_C 	C 	0.525	0.8749	0.4507	-0.041
Mof_C 	C 	0.6182	0.9968	0.4253	-0.046
Mof_C 	C 	0.409	0.8757	0.526	-0.073
Mof_C 	C 	0.539	0.7432	0.3894	0.298
Mof_C 	C 	0.7537	0.9901	0.3523	0.309
Mof_C 	C 	0.2994	0.7427	0.5524	0.383
Mof_C 	C 	0.975	0.6251	0.9507	-0.037
Mof_C 	C 	0.8818	0.5032	0.9253	-0.048
Mof_C 	C 	0.091	0.6243	0.026	-0.078
Mof_C 	C 	0.961	0.7568	0.8894	0.297
Mof_C 	C 	0.7463	0.5099	0.8523	0.305
Mof_C 	C 	0.2006	0.7573	0.0524	0.381
Mof_O 	O 	0.1584	0.1114	0.6389	-0.379
Mof_O 	O 	0.2178	0.9167	0.7121	-0.37
Mof_O 	O 	0.4517	0.3737	0.5677	-0.357
Mof_O 	O 	0.8339	0.2677	0.489	-0.287
Mof_O 	O 	0.6504	0.3421	0.386	-0.431
Mof_O 	O 	0.4629	0.2484	0.7065	-0.372
Mof_O 	O 	0.3416	0.3886	0.1389	-0.383
Mof_O 	O 	0.2822	0.5833	0.2121	-0.37
Mof_O 	O 	0.0483	0.1263	0.0677	-0.348
Mof_O 	O 	0.6661	0.2323	0.989	-0.289
Mof_O 	O 	0.8496	0.1579	0.886	-0.432
Mof_O 	O 	0.0371	0.2516	0.2065	-0.366
Mof_O 	O 	0.8416	0.8886	0.3611	-0.379
Mof_O 	O 	0.7822	0.0833	0.2879	-0.37
Mof_O 	O 	0.5483	0.6263	0.4323	-0.357
Mof_O 	O 	0.1661	0.7323	0.511	-0.287
Mof_O 	O 	0.3496	0.6579	0.614	-0.431
Mof_O 	O 	0.5371	0.7516	0.2935	-0.372
Mof_O 	O 	0.6584	0.6114	0.8611	-0.383
Mof_O 	O 	0.7178	0.4167	0.7879	-0.37
Mof_O 	O 	0.9517	0.8737	0.9323	-0.348
Mof_O 	O 	0.3339	0.7677	0.011	-0.289
Mof_O 	O 	0.1504	0.8421	0.114	-0.432
Mof_O 	O 	0.9629	0.7484	0.7935	-0.366
_end
