data_functionalizedCrystal
_audit_creation_method	'EQeq! by Chris Wilmer'
_symmetry_space_group_name_H-M	'P1'
_symmetry_Int_Tables_number	1
_symmetry_cell_setting	triclinic
loop_
_symmetry_equiv_pos_as_xyz
  x,y,z
_cell_length_a	6.3541
_cell_length_b	10.46
_cell_length_c	14.769
_cell_angle_alpha	90
_cell_angle_beta	90.412
_cell_angle_gamma	90
loop_
_atom_site_label
_atom_site_type_symbol
_atom_site_fract_x
_atom_site_fract_y
_atom_site_fract_z
_atom_site_charge
Mof_V 	V 	0.25485	0.1099	0.89048	1.718
Mof_P 	P 	0.1693	0.32589	0.72581	0.462
Mof_P 	P 	0.2339	0.9672	0.08278	-0.173
Mof_O 	O 	0.2765	0.2212	0.7783	-0.482
Mof_O 	O 	0.2371	0.96	0.9789	-0.516
Mof_O 	O 	0.2886	0.4498	0.7177	-0.375
Mof_O 	O 	0.4423	0.9325	0.1257	-0.53
Mof_O 	O 	0.0602	0.8899	0.1246	-0.529
Mof_O 	O 	0.1203	0.2724	0.6282	-0.51
Mof_H 	H 	0.117	0.309	0.583	0.288
Mof_P 	P 	0.25	0.8983	0.0765	0.636
Mof_V 	V 	0.24515	0.6099	0.60952	1.723
Mof_P 	P 	0.3307	0.82589	0.77419	0.465
Mof_P 	P 	0.2661	0.4672	0.41722	-0.154
Mof_O 	O 	0.2235	0.7212	0.7217	-0.479
Mof_O 	O 	0.2629	0.46	0.5211	-0.523
Mof_O 	O 	0.2114	0.9498	0.7823	-0.371
Mof_O 	O 	0.0577	0.4325	0.3743	-0.527
Mof_O 	O 	0.4398	0.3899	0.3754	-0.53
Mof_O 	O 	0.3797	0.7724	0.8718	-0.508
Mof_H 	H 	0.383	0.809	0.917	0.289
Mof_P 	P 	0.25	0.3983	0.4235	0.624
Mof_V 	V 	0.74515	0.8901	0.10952	1.719
Mof_P 	P 	0.8307	0.67411	0.27419	0.463
Mof_P 	P 	0.7661	0.0328	0.91722	-0.172
Mof_O 	O 	0.7235	0.7788	0.2217	-0.481
Mof_O 	O 	0.7629	0.04	0.0211	-0.516
Mof_O 	O 	0.7114	0.5502	0.2823	-0.375
Mof_O 	O 	0.5577	0.0675	0.8743	-0.53
Mof_O 	O 	0.9398	0.1101	0.8754	-0.529
Mof_O 	O 	0.8797	0.7276	0.3718	-0.51
Mof_H 	H 	0.883	0.691	0.417	0.288
Mof_P 	P 	0.75	0.1017	0.9235	0.636
Mof_V 	V 	0.75485	0.3901	0.39048	1.723
Mof_P 	P 	0.6693	0.17411	0.22581	0.465
Mof_P 	P 	0.7339	0.5328	0.58278	-0.154
Mof_O 	O 	0.7765	0.2788	0.2783	-0.479
Mof_O 	O 	0.7371	0.54	0.4789	-0.523
Mof_O 	O 	0.7886	0.0502	0.2177	-0.371
Mof_O 	O 	0.9423	0.5675	0.6257	-0.527
Mof_O 	O 	0.5602	0.6101	0.6246	-0.53
Mof_O 	O 	0.6203	0.2276	0.1282	-0.508
Mof_H 	H 	0.617	0.191	0.083	0.289
Mof_P 	P 	0.75	0.6017	0.5765	0.624
_end
