# CIF file generated by openbabel 3.1.0, see https://openbabel.org
data_I
_chemical_name_common 'image0'
_cell_length_a 12.705
_cell_length_b 24.2253
_cell_length_c 15.0542
_cell_angle_alpha 90
_cell_angle_beta 92.802
_cell_angle_gamma 90
_space_group_name_H-M_alt 'P 1'
_space_group_name_Hall 'P 1'
loop_
    _symmetry_equiv_pos_as_xyz
    x,y,z
loop_
    _atom_site_label
    _atom_site_type_symbol
    _atom_site_fract_x
    _atom_site_fract_y
    _atom_site_fract_z
    _atom_site_occupancy
    Cd1      Cd       0.96270    0.90468    0.05426    1.000
    Cd2      Cd       0.95768    0.90977    0.32649    1.000
    Cd3      Cd       0.49720    0.89917    0.78125    1.000
    Cd4      Cd       0.51146    0.90574    0.50890    1.000
    N1       N        0.08540    0.97270    0.31420    1.000
    N2       N        0.63500    0.83880    0.78970    1.000
    O1       O        0.07290    0.83700    0.30270    1.000
    N3       N        0.17080    0.34360    0.94490    1.000
    N4       N        0.61840    0.46910    0.47490    1.000
    O2       O        0.40010    0.83470    0.54290    1.000
    N5       N        0.35360    0.34580    0.46880    1.000
    O3       O        0.04210    0.85540    0.94260    1.000
    O4       O        0.00870    0.89220    0.47350    1.000
    N6       N        0.90370    0.46590    0.94290    1.000
    N7       N        0.36910    0.96480    0.78090    1.000
    N8       N        0.82530    0.84650    0.31510    1.000
    N9       N        0.24800    0.26290    0.92620    1.000
    O5       O        0.42160    0.84600    0.89570    1.000
    C1       C        0.30270    0.81150    0.14200    1.000
    C2       C        0.99770    0.91610    0.54550    1.000
    N10      N        0.81810    0.54450    0.92460    1.000
    O6       O        0.50900    0.91760    0.94930    1.000
    C3       C        0.90780    0.51700    0.91840    1.000
    H1       H        0.96850    0.53310    0.89810    1.000
    C4       C        0.47020    0.90370    0.29120    1.000
    C5       C        0.72630    0.85050    0.28000    1.000
    H2       H        0.69620    0.88180    0.25360    1.000
    O7       O        0.22540    0.77100    0.14610    1.000
    C6       C        0.11430    0.84470    0.61940    1.000
    H3       H        0.13670    0.83530    0.56350    1.000
    C7       C        0.73490    0.71050    0.35540    1.000
    C8       C        0.25090    0.35630    0.46070    1.000
    H4       H        0.22140    0.39060    0.47240    1.000
    C9       C        0.81730    0.67420    0.35770    1.000
    H5       H        0.88340    0.68610    0.34200    1.000
    C10      C        0.27460    0.34740    0.97130    1.000
    H6       H        0.30700    0.37920    0.99390    1.000
    N11      N        0.17610    0.05100    0.32800    1.000
    C11      C        0.66940    0.67380    0.87700    1.000
    H7       H        0.60050    0.68680    0.87590    1.000
    C12      C        0.04640    0.87060    0.78520    1.000
    C13      C        0.45240    0.87700    0.95970    1.000
    O8       O        0.52780    0.94570    0.28210    1.000
    C14      C        0.15320    0.81660    0.69310    1.000
    C15      C        0.00860    0.90110    0.71160    1.000
    H8       H        0.96200    0.93020    0.71880    1.000
    C16      C        0.19940    0.10670    0.35250    1.000
    C17      C        0.17700    0.17190    0.89910    1.000
    H9       H        0.11300    0.18500    0.91800    1.000
    C18      C        0.60700    0.51980    0.44630    1.000
    H10      H        0.54150    0.53600    0.43410    1.000
    C19      C        0.16060    0.77050    0.22240    1.000
    H11      H        0.20590    0.76810    0.27680    1.000
    C20      C        0.19480    0.31240    0.43410    1.000
    H12      H        0.12210    0.31050    0.42370    1.000
    C21      C        0.08440    0.02450    0.34040    1.000
    H13      H        0.02660    0.04110    0.36480    1.000
    N12      N        0.72380    0.76330    0.82680    1.000
    O9       O        0.95120    0.96140    0.55460    1.000
    C22      C        0.72450    0.46190    0.48670    1.000
    H14      H        0.75850    0.43020    0.50780    1.000
    C23      C        0.36620    0.82330    0.61730    1.000
    C24      C        0.38440    0.01440    0.81320    1.000
    H15      H        0.44990    0.02810    0.83270    1.000
    C25      C        0.79490    0.59980    0.90150    1.000
    C26      C        0.80340    0.61940    0.38320    1.000
    H16      H        0.86000    0.59510    0.38300    1.000
    C27      C        0.41460    0.86210    0.05110    1.000
    C28      C        0.29080    0.77270    0.61670    1.000
    H17      H        0.24730    0.77260    0.56110    1.000
    C29      C        0.32250    0.18100    0.37170    1.000
    H18      H        0.39030    0.19460    0.36600    1.000
    O10      O        0.95190    0.92600    0.88750    1.000
    C30      C        0.01010    0.88550    0.87730    1.000
    C31      C        0.14310    0.19540    0.40200    1.000
    H19      H        0.08950    0.21850    0.41980    1.000
    O11      O        0.22470    0.77299    0.68910    1.000
    N13      N        0.29440    0.04320    0.81480    1.000
    O12      O        0.45450    0.88160    0.36510    1.000
    N14      N        0.74770    0.76580    0.33110    1.000
    C32      C        0.70900    0.60110    0.40810    1.000
    N15      N        0.26580    0.27040    0.42500    1.000
    N16      N        0.69510    0.54520    0.43650    1.000
    C33      C        0.28250    0.09860    0.84340    1.000
    C34      C        0.34420    0.83930    0.21690    1.000
    H20      H        0.31900    0.83160    0.27250    1.000
    C35      C        0.09330    0.71960    0.21430    1.000
    H21      H        0.13760    0.68760    0.21240    1.000
    H22      H        0.04930    0.72160    0.16070    1.000
    H23      H        0.04990    0.71720    0.26460    1.000
    C36      C        0.21820    0.00780    0.78080    1.000
    H24      H        0.14670    0.01540    0.77240    1.000
    C37      C        0.23830    0.01430    0.28890    1.000
    H25      H        0.30560    0.02080    0.26960    1.000
    C38      C        0.11830    0.82910    0.77760    1.000
    H26      H        0.14340    0.80960    0.82740    1.000
    C39      C        0.35610    0.18810    0.87370    1.000
    H27      H        0.41350    0.21200    0.87450    1.000
    C40      C        0.04120    0.88760    0.62760    1.000
    O13      O        0.38740    0.84520    0.68960    1.000
    C41      C        0.42260    0.87810    0.20860    1.000
    C42      C        0.45760    0.89020    0.12520    1.000
    H28      H        0.50930    0.91680    0.11860    1.000
    C43      C        0.62880    0.78560    0.81020    1.000
    H29      H        0.56580    0.76620    0.81280    1.000
    C44      C        0.63880    0.69220    0.37980    1.000
    H30      H        0.58200    0.71640    0.38080    1.000
    C45      C        0.30040    0.12710    0.35220    1.000
    H31      H        0.35500    0.10360    0.33840    1.000
    C46      C        0.77180    0.50950    0.46220    1.000
    H32      H        0.84400    0.51620    0.46310    1.000
    C47      C        0.85040    0.68890    0.85120    1.000
    H33      H        0.90450    0.71180    0.83390    1.000
    C48      C        0.33550    0.82350    0.05940    1.000
    H34      H        0.30520    0.80610    0.00940    1.000
    C49      C        0.67680    0.80060    0.28990    1.000
    H35      H        0.60770    0.79210    0.27170    1.000
    C50      C        0.35970    0.29400    0.44710    1.000
    H36      H        0.42320    0.27480    0.44670    1.000
    C51      C        0.26080    0.20650    0.89850    1.000
    C52      C        0.79710    0.80500    0.81810    1.000
    H37      H        0.86980    0.80190    0.82660    1.000
    C53      C        0.80840    0.45900    0.97060    1.000
    H38      H        0.78280    0.42630    0.99350    1.000
    C54      C        0.36750    0.13400    0.84730    1.000
    H39      H        0.43320    0.12130    0.83190    1.000
    C55      C        0.18520    0.11730    0.87210    1.000
    H40      H        0.12750    0.09370    0.87290    1.000
    C56      C        0.35420    0.72050    0.62260    1.000
    H41      H        0.30750    0.68930    0.62100    1.000
    H42      H        0.39630    0.72020    0.67730    1.000
    H43      H        0.39930    0.71860    0.57340    1.000
    C57      C        0.74160    0.85160    0.79480    1.000
    H44      H        0.77040    0.88610    0.78420    1.000
    C58      C        0.69210    0.62010    0.90340    1.000
    H45      H        0.63850    0.59750    0.92250    1.000
    C59      C        0.74990    0.70790    0.85230    1.000
    C60      C        0.15720    0.29270    0.91850    1.000
    H46      H        0.09300    0.27850    0.89690    1.000
    C61      C        0.24360    0.21510    0.40000    1.000
    C62      C        0.87070    0.63440    0.87650    1.000
    H47      H        0.93960    0.62150    0.87620    1.000
    C63      C        0.75280    0.50620    0.96130    1.000
    H48      H        0.68360    0.51190    0.97670    1.000
    C64      C        0.62650    0.63670    0.40330    1.000
    H49      H        0.55990    0.62390    0.41600    1.000
    C65      C        0.12110    0.14300    0.37860    1.000
    H50      H        0.05200    0.13050    0.37980    1.000
    C66      C        0.26540    0.96110    0.76210    1.000
    H51      H        0.23130    0.92990    0.73900    1.000
    C67      C        0.83690    0.79630    0.34680    1.000
    H52      H        0.89800    0.78310    0.37610    1.000
    C68      C        0.18460    0.96600    0.28280    1.000
    H53      H        0.21080    0.93320    0.26080    1.000
    C69      C        0.32320    0.29940    0.96050    1.000
    H54      H        0.39400    0.29190    0.97350    1.000
    O14      O        0.06160    0.84290    0.15400    1.000
    C70      C        0.09210    0.82200    0.22590    1.000
    Cd5      Cd       0.03730    0.40468    0.94574    1.000
    Cd6      Cd       0.04232    0.40977    0.67351    1.000
    Cd7      Cd       0.50280    0.39917    0.21875    1.000
    Cd8      Cd       0.48854    0.40574    0.49110    1.000
    N17      N        0.91460    0.47270    0.68580    1.000
    N18      N        0.36500    0.33880    0.21030    1.000
    O15      O        0.92710    0.33700    0.69730    1.000
    N19      N        0.82920    0.84360    0.05510    1.000
    N20      N        0.38160    0.96910    0.52510    1.000
    O16      O        0.59990    0.33470    0.45710    1.000
    N21      N        0.64640    0.84580    0.53120    1.000
    O17      O        0.95790    0.35540    0.05740    1.000
    O18      O        0.99130    0.39220    0.52650    1.000
    N22      N        0.09630    0.96590    0.05710    1.000
    N23      N        0.63090    0.46480    0.21910    1.000
    N24      N        0.17470    0.34650    0.68490    1.000
    N25      N        0.75200    0.76290    0.07380    1.000
    O19      O        0.57840    0.34600    0.10430    1.000
    C71      C        0.69730    0.31150    0.85800    1.000
    C72      C        0.00230    0.41610    0.45450    1.000
    N26      N        0.18190    0.04450    0.07540    1.000
    O20      O        0.49100    0.41760    0.05070    1.000
    C73      C        0.09220    0.01700    0.08160    1.000
    H55      H        0.03150    0.03310    0.10190    1.000
    C74      C        0.52980    0.40370    0.70880    1.000
    C75      C        0.27370    0.35050    0.72000    1.000
    H56      H        0.30380    0.38180    0.74640    1.000
    O21      O        0.77460    0.27100    0.85390    1.000
    C76      C        0.88570    0.34470    0.38060    1.000
    H57      H        0.86330    0.33530    0.43650    1.000
    C77      C        0.26510    0.21050    0.64460    1.000
    C78      C        0.74910    0.85630    0.53930    1.000
    H58      H        0.77860    0.89060    0.52760    1.000
    C79      C        0.18270    0.17420    0.64230    1.000
    H59      H        0.11660    0.18610    0.65800    1.000
    C80      C        0.72540    0.84740    0.02870    1.000
    H60      H        0.69300    0.87920    0.00610    1.000
    N27      N        0.82390    0.55100    0.67200    1.000
    C81      C        0.33060    0.17380    0.12300    1.000
    H61      H        0.39950    0.18680    0.12410    1.000
    C82      C        0.95360    0.37060    0.21480    1.000
    C83      C        0.54760    0.37700    0.04030    1.000
    O22      O        0.47220    0.44570    0.71790    1.000
    C84      C        0.84680    0.31660    0.30690    1.000
    C85      C        0.99140    0.40110    0.28840    1.000
    H62      H        0.03800    0.43020    0.28120    1.000
    C86      C        0.80060    0.60670    0.64750    1.000
    C87      C        0.82300    0.67190    0.10090    1.000
    H63      H        0.88700    0.68500    0.08200    1.000
    C88      C        0.39300    0.01980    0.55370    1.000
    H64      H        0.45850    0.03600    0.56590    1.000
    C89      C        0.83940    0.27050    0.77760    1.000
    H65      H        0.79410    0.26810    0.72320    1.000
    C90      C        0.80520    0.81240    0.56590    1.000
    H66      H        0.87790    0.81050    0.57630    1.000
    C91      C        0.91560    0.52450    0.65960    1.000
    H67      H        0.97340    0.54110    0.63520    1.000
    N28      N        0.27620    0.26330    0.17320    1.000
    O23      O        0.04880    0.46140    0.44540    1.000
    C92      C        0.27550    0.96190    0.51330    1.000
    H68      H        0.24150    0.93020    0.49220    1.000
    C93      C        0.63380    0.32330    0.38270    1.000
    C94      C        0.61560    0.51440    0.18680    1.000
    H69      H        0.55010    0.52810    0.16730    1.000
    C95      C        0.20510    0.09980    0.09850    1.000
    C96      C        0.19660    0.11940    0.61680    1.000
    H70      H        0.14000    0.09510    0.61700    1.000
    C97      C        0.58540    0.36210    0.94890    1.000
    C98      C        0.70920    0.27270    0.38330    1.000
    H71      H        0.75270    0.27260    0.43890    1.000
    C99      C        0.67750    0.68100    0.62830    1.000
    H72      H        0.60970    0.69460    0.63400    1.000
    O24      O        0.04810    0.42600    0.11250    1.000
    C100     C        0.98990    0.38550    0.12270    1.000
    C101     C        0.85690    0.69540    0.59800    1.000
    H73      H        0.91050    0.71850    0.58020    1.000
    O25      O        0.77530    0.27299    0.31090    1.000
    N29      N        0.70560    0.54320    0.18520    1.000
    O26      O        0.54550    0.38160    0.63490    1.000
    N30      N        0.25230    0.26580    0.66890    1.000
    C102     C        0.29100    0.10110    0.59190    1.000
    N31      N        0.73420    0.77040    0.57500    1.000
    N32      N        0.30490    0.04520    0.56350    1.000
    C103     C        0.71750    0.59860    0.15660    1.000
    C104     C        0.65580    0.33930    0.78310    1.000
    H74      H        0.68100    0.33160    0.72750    1.000
    C105     C        0.90670    0.21960    0.78570    1.000
    H75      H        0.86240    0.18760    0.78760    1.000
    H76      H        0.95070    0.22160    0.83930    1.000
    H77      H        0.95010    0.21720    0.73540    1.000
    C106     C        0.78180    0.50780    0.21920    1.000
    H78      H        0.85330    0.51540    0.22760    1.000
    C107     C        0.76170    0.51430    0.71110    1.000
    H79      H        0.69440    0.52080    0.73040    1.000
    C108     C        0.88170    0.32910    0.22240    1.000
    H80      H        0.85660    0.30960    0.17260    1.000
    C109     C        0.64390    0.68810    0.12630    1.000
    H81      H        0.58650    0.71200    0.12550    1.000
    C110     C        0.95880    0.38760    0.37240    1.000
    O27      O        0.61260    0.34520    0.31040    1.000
    C111     C        0.57740    0.37810    0.79140    1.000
    C112     C        0.54240    0.39020    0.87480    1.000
    H82      H        0.49070    0.41680    0.88140    1.000
    C113     C        0.37120    0.28560    0.18980    1.000
    H83      H        0.43420    0.26620    0.18720    1.000
    C114     C        0.36120    0.19220    0.62020    1.000
    H84      H        0.41800    0.21640    0.61920    1.000
    C115     C        0.69960    0.62710    0.64780    1.000
    H85      H        0.64500    0.60360    0.66160    1.000
    C116     C        0.22820    0.00950    0.53780    1.000
    H86      H        0.15600    0.01620    0.53690    1.000
    C117     C        0.14960    0.18890    0.14880    1.000
    H87      H        0.09550    0.21180    0.16610    1.000
    C118     C        0.66450    0.32350    0.94060    1.000
    H88      H        0.69480    0.30610    0.99060    1.000
    C119     C        0.32320    0.30060    0.71010    1.000
    H89      H        0.39230    0.29210    0.72830    1.000
    C120     C        0.64030    0.79400    0.55290    1.000
    H90      H        0.57680    0.77480    0.55330    1.000
    C121     C        0.73920    0.70650    0.10150    1.000
    C122     C        0.20290    0.30500    0.18190    1.000
    H91      H        0.13020    0.30190    0.17340    1.000
    C123     C        0.19160    0.95900    0.02940    1.000
    H92      H        0.21720    0.92630    0.00650    1.000
    C124     C        0.63250    0.63400    0.15270    1.000
    H93      H        0.56680    0.62130    0.16810    1.000
    C125     C        0.81480    0.61730    0.12790    1.000
    H94      H        0.87250    0.59370    0.12710    1.000
    C126     C        0.64580    0.22050    0.37740    1.000
    H95      H        0.69250    0.18930    0.37900    1.000
    H96      H        0.60370    0.22020    0.32270    1.000
    H97      H        0.60070    0.21860    0.42660    1.000
    C127     C        0.25840    0.35160    0.20520    1.000
    H98      H        0.22960    0.38610    0.21580    1.000
    C128     C        0.30790    0.12010    0.09660    1.000
    H99      H        0.36150    0.09750    0.07750    1.000
    C129     C        0.25010    0.20790    0.14770    1.000
    C130     C        0.84280    0.79270    0.08150    1.000
    H100     H        0.90700    0.77850    0.10310    1.000
    C131     C        0.75640    0.71510    0.60000    1.000
    C132     C        0.12930    0.13440    0.12350    1.000
    H101     H        0.06040    0.12150    0.12380    1.000
    C133     C        0.24720    0.00620    0.03870    1.000
    H102     H        0.31640    0.01190    0.02330    1.000
    C134     C        0.37350    0.13670    0.59670    1.000
    H103     H        0.44010    0.12390    0.58400    1.000
    C135     C        0.87890    0.64300    0.62140    1.000
    H104     H        0.94800    0.63050    0.62020    1.000
    C136     C        0.73460    0.46110    0.23790    1.000
    H105     H        0.76870    0.42990    0.26100    1.000
    C137     C        0.16310    0.29630    0.65320    1.000
    H106     H        0.10200    0.28310    0.62390    1.000
    C138     C        0.81540    0.46600    0.71720    1.000
    H107     H        0.78920    0.43320    0.73920    1.000
    C139     C        0.67680    0.79940    0.03950    1.000
    H108     H        0.60600    0.79190    0.02650    1.000
    O28      O        0.93840    0.34290    0.84600    1.000
    C140     C        0.90790    0.32200    0.77410    1.000
