data_functionalizedCrystal
_audit_creation_method	'EQeq! by Chris Wilmer'
_symmetry_space_group_name_H-M	'P1'
_symmetry_Int_Tables_number	1
_symmetry_cell_setting	triclinic
loop_
_symmetry_equiv_pos_as_xyz
  x,y,z
_cell_length_a	10.2319
_cell_length_b	10.6531
_cell_length_c	6.221
_cell_angle_alpha	90
_cell_angle_beta	114.485
_cell_angle_gamma	90
loop_
_atom_site_label
_atom_site_type_symbol
_atom_site_fract_x
_atom_site_fract_y
_atom_site_fract_z
_atom_site_charge
Mof_C 	C 	0.318	0.2113	0.5453	-0.062
Mof_H 	H 	0.4007	0.2664	0.5682	0.014
Mof_H 	H 	0.3337	0.1749	0.7006	-0.003
Mof_N 	N 	0.3108	0.1092	0.3804	-0.262
Mof_H 	H 	0.295	0.1433	0.2358	0.054
Mof_H 	H 	0.2342	0.058	0.3602	0.047
Mof_C 	C 	0.818	0.7113	0.5453	-0.062
Mof_H 	H 	0.9007	0.7664	0.5682	0.042
Mof_H 	H 	0.8337	0.6749	0.7006	0.022
Mof_N 	N 	0.8108	0.6092	0.3804	-0.255
Mof_H 	H 	0.795	0.6433	0.2358	0.077
Mof_H 	H 	0.7342	0.558	0.3602	0.077
Mof_C 	C 	0.682	0.2113	0.9547	0.023
Mof_H 	H 	0.5993	0.2664	0.9318	-0.004
Mof_H 	H 	0.6663	0.1749	0.7994	-0.024
Mof_N 	N 	0.6892	0.1092	0.1196	-0.283
Mof_H 	H 	0.705	0.1433	0.2642	0.069
Mof_H 	H 	0.7658	0.058	0.1398	0.065
Mof_C 	C 	0.182	0.7113	0.9547	0.027
Mof_H 	H 	0.0993	0.7664	0.9318	-0.016
Mof_H 	H 	0.1663	0.6749	0.7994	-0.027
Mof_N 	N 	0.1892	0.6092	0.1196	-0.285
Mof_H 	H 	0.205	0.6433	0.2642	0.071
Mof_H 	H 	0.2658	0.558	0.1398	0.074
Mof_C 	C 	0.682	0.7887	0.4547	-0.026
Mof_H 	H 	0.5993	0.7336	0.4318	0.008
Mof_H 	H 	0.6663	0.8251	0.2994	0.005
Mof_N 	N 	0.6892	0.8908	0.6196	-0.268
Mof_H 	H 	0.705	0.8567	0.7642	0.095
Mof_H 	H 	0.7658	0.942	0.6398	0.11
Mof_C 	C 	0.182	0.2887	0.4547	-0.024
Mof_H 	H 	0.0993	0.2336	0.4318	-0.019
Mof_H 	H 	0.1663	0.3251	0.2994	-0.021
Mof_N 	N 	0.1892	0.3908	0.6196	-0.276
Mof_H 	H 	0.205	0.3567	0.7642	0.072
Mof_H 	H 	0.2658	0.442	0.6398	0.08
Mof_C 	C 	0.318	0.7887	0.0453	-0.11
Mof_H 	H 	0.4007	0.7336	0.0682	0.027
Mof_H 	H 	0.3337	0.8251	0.2006	0.023
Mof_N 	N 	0.3108	0.8908	0.8804	-0.237
Mof_H 	H 	0.295	0.8567	0.7358	0.078
Mof_H 	H 	0.2342	0.942	0.8602	0.092
Mof_C 	C 	0.818	0.2887	0.0453	-0.113
Mof_H 	H 	0.9007	0.2336	0.0682	0.039
Mof_H 	H 	0.8337	0.3251	0.2006	0.026
Mof_N 	N 	0.8108	0.3908	0.8804	-0.236
Mof_H 	H 	0.795	0.3567	0.7358	0.076
Mof_H 	H 	0.7342	0.442	0.8602	0.082
Mof_Ag	Ag	0.5	0	0.5	0.309
Mof_Ag	Ag	1.61222e-33	0.5	0.5	0.311
Mof_Ag	Ag	0.5	0	-0	0.258
Mof_Ag	Ag	-0	0.5	-0	0.26
_end
