data_functionalizedCrystal
_audit_creation_method	'EQeq! by Chris Wilmer'
_symmetry_space_group_name_H-M	'P1'
_symmetry_Int_Tables_number	1
_symmetry_cell_setting	triclinic
loop_
_symmetry_equiv_pos_as_xyz
  x,y,z
_cell_length_a	31.609
_cell_length_b	9.8716
_cell_length_c	24.738
_cell_angle_alpha	90
_cell_angle_beta	104.669
_cell_angle_gamma	90
loop_
_atom_site_label
_atom_site_type_symbol
_atom_site_fract_x
_atom_site_fract_y
_atom_site_fract_z
_atom_site_charge
Mof_O 	O 	0.90154	0.6155	0.18492	-0.385
Mof_O 	O 	0.85002	0.5202	0.22045	-0.377
Mof_O 	O 	0.36216	0.0983	0.60421	-0.388
Mof_O 	O 	0.29482	0.1448	0.60964	-0.386
Mof_Mn	Mn	0.12003	0.60878	0.4029	0.821
Mof_Mn	Mn	0.21126	0.52708	0.34083	0.873
Mof_Cl	Cl	0.19351	0.71309	0.40111	-0.511
Mof_N 	N 	0.14964	0.5735	0.49917	-0.159
Mof_N 	N 	0.18427	0.4638	0.60588	-0.1
Mof_N 	N 	0.06407	0.5106	0.43894	-0.188
Mof_N 	N 	0.05513	0.3809	0.51059	-0.091
Mof_N 	N 	0.01857	0.3816	0.46806	-0.171
Mof_H 	H 	0.9951	0.3376	0.4681	0.12
Mof_N 	N 	0.23109	0.6779	0.2773	-0.151
Mof_N 	N 	0.26108	0.868	0.2118	-0.152
Mof_N 	N 	0.28431	0.5894	0.37888	-0.182
Mof_N 	N 	0.34059	0.7163	0.36539	-0.088
Mof_N 	N 	0.35286	0.6448	0.41359	-0.171
Mof_H 	H 	0.3786	0.6469	0.436	0.116
Mof_C 	C 	0.19045	0.6016	0.52924	0.016
Mof_H 	H 	0.2077	0.6598	0.5144	0.051
Mof_C 	C 	0.20738	0.5464	0.58148	0.002
Mof_H 	H 	0.236	0.5675	0.6004	0.06
Mof_C 	C 	0.14374	0.4364	0.57677	0.003
Mof_H 	H 	0.1265	0.3793	0.5922	0.044
Mof_C 	C 	0.12615	0.4912	0.52335	0.021
Mof_C 	C 	0.08135	0.4607	0.49125	0.092
Mof_C 	C 	0.0236	0.4601	0.42548	0.119
Mof_C 	C 	0.98881	0.4866	0.37486	0.004
Mof_C 	C 	0.94849	0.4213	0.36569	-0.077
Mof_H 	H 	0.9435	0.3599	0.3919	0.059
Mof_C 	C 	0.91577	0.4475	0.3177	0.025
Mof_H 	H 	0.889	0.4037	0.3123	0.039
Mof_C 	C 	0.92239	0.5379	0.27766	-0.112
Mof_C 	C 	0.962	0.6056	0.28829	0.026
Mof_H 	H 	0.9666	0.6694	0.2627	0.032
Mof_C 	C 	0.99499	0.5807	0.33616	-0.076
Mof_H 	H 	0.0213	0.6274	0.3422	0.051
Mof_C 	C 	0.88859	0.5598	0.22352	0.384
Mof_C 	C 	0.20654	0.7161	0.22734	0.015
Mof_H 	H 	0.1788	0.6792	0.2141	0.038
Mof_C 	C 	0.22172	0.8099	0.19484	0.018
Mof_H 	H 	0.2039	0.8332	0.1601	0.03
Mof_C 	C 	0.28569	0.8285	0.26157	0.012
Mof_H 	H 	0.3132	0.8666	0.2751	0.043
Mof_C 	C 	0.27116	0.732	0.29348	0.024
Mof_C 	C 	0.29923	0.6809	0.34609	0.1
Mof_C 	C 	0.31939	0.5699	0.42166	0.12
Mof_C 	C 	0.32282	0.4786	0.46969	0.006
Mof_C 	C 	0.36212	0.4162	0.49442	-0.08
Mof_H 	H 	0.3872	0.4386	0.4832	0.057
Mof_C 	C 	0.36416	0.3207	0.53586	0.019
Mof_H 	H 	0.3906	0.2784	0.552	0.04
Mof_C 	C 	0.32698	0.2868	0.55376	-0.097
Mof_C 	C 	0.28842	0.3573	0.53164	0.02
Mof_H 	H 	0.2639	0.3408	0.545	0.044
Mof_C 	C 	0.28629	0.4525	0.48941	-0.069
Mof_H 	H 	0.2603	0.4987	0.4744	0.067
Mof_C 	C 	0.32834	0.1648	0.59347	0.394
Mof_O 	O 	0.40154	0.1155	0.18492	-0.384
Mof_O 	O 	0.35002	0.0202	0.22045	-0.377
Mof_O 	O 	0.86216	0.5983	0.60421	-0.388
Mof_O 	O 	0.79482	0.6448	0.60964	-0.385
Mof_Mn	Mn	0.62003	0.10878	0.4029	0.822
Mof_Mn	Mn	0.71126	0.02708	0.34083	0.873
Mof_Cl	Cl	0.69351	0.21309	0.40111	-0.51
Mof_N 	N 	0.64964	0.0735	0.49917	-0.158
Mof_N 	N 	0.68427	0.9638	0.60588	-0.1
Mof_N 	N 	0.56407	0.0106	0.43894	-0.188
Mof_N 	N 	0.55513	0.8809	0.51059	-0.091
Mof_N 	N 	0.51857	0.8816	0.46806	-0.171
Mof_H 	H 	0.4951	0.8376	0.4681	0.12
Mof_N 	N 	0.73109	0.1779	0.2773	-0.151
Mof_N 	N 	0.76108	0.368	0.2118	-0.152
Mof_N 	N 	0.78431	0.0894	0.37888	-0.182
Mof_N 	N 	0.84059	0.2163	0.36539	-0.088
Mof_N 	N 	0.85286	0.1448	0.41359	-0.171
Mof_H 	H 	0.8786	0.1469	0.436	0.116
Mof_C 	C 	0.69045	0.1016	0.52924	0.016
Mof_H 	H 	0.7077	0.1598	0.5144	0.051
Mof_C 	C 	0.70738	0.0464	0.58148	0.002
Mof_H 	H 	0.736	0.0675	0.6004	0.06
Mof_C 	C 	0.64374	0.9364	0.57677	0.003
Mof_H 	H 	0.6265	0.8793	0.5922	0.044
Mof_C 	C 	0.62615	0.9912	0.52335	0.021
Mof_C 	C 	0.58135	0.9607	0.49125	0.093
Mof_C 	C 	0.5236	0.9601	0.42548	0.119
Mof_C 	C 	0.48881	0.9866	0.37486	0.007
Mof_C 	C 	0.44849	0.9213	0.36569	-0.079
Mof_H 	H 	0.4435	0.8599	0.3919	0.06
Mof_C 	C 	0.41577	0.9475	0.3177	0.028
Mof_H 	H 	0.389	0.9037	0.3123	0.038
Mof_C 	C 	0.42239	0.0379	0.27766	-0.114
Mof_C 	C 	0.462	0.1056	0.28829	0.028
Mof_H 	H 	0.4666	0.1694	0.2627	0.031
Mof_C 	C 	0.49499	0.0807	0.33616	-0.079
Mof_H 	H 	0.5213	0.1274	0.3422	0.052
Mof_C 	C 	0.38859	0.0598	0.22352	0.385
Mof_C 	C 	0.70654	0.2161	0.22734	0.015
Mof_H 	H 	0.6788	0.1792	0.2141	0.038
Mof_C 	C 	0.72172	0.3099	0.19484	0.018
Mof_H 	H 	0.7039	0.3332	0.1601	0.03
Mof_C 	C 	0.78569	0.3285	0.26157	0.012
Mof_H 	H 	0.8132	0.3666	0.2751	0.042
Mof_C 	C 	0.77116	0.232	0.29348	0.023
Mof_C 	C 	0.79923	0.1809	0.34609	0.1
Mof_C 	C 	0.81939	0.0699	0.42166	0.119
Mof_C 	C 	0.82282	0.9786	0.46969	0.007
Mof_C 	C 	0.86212	0.9162	0.49442	-0.08
Mof_H 	H 	0.8872	0.9386	0.4832	0.057
Mof_C 	C 	0.86416	0.8207	0.53586	0.019
Mof_H 	H 	0.8906	0.7784	0.552	0.04
Mof_C 	C 	0.82698	0.7868	0.55376	-0.098
Mof_C 	C 	0.78842	0.8573	0.53164	0.021
Mof_H 	H 	0.7639	0.8408	0.545	0.043
Mof_C 	C 	0.78629	0.9525	0.48941	-0.07
Mof_H 	H 	0.7603	0.9987	0.4744	0.068
Mof_C 	C 	0.82834	0.6648	0.59347	0.394
Mof_O 	O 	0.09846	0.6155	0.31508	-0.384
Mof_O 	O 	0.14998	0.5202	0.27955	-0.377
Mof_O 	O 	0.63784	0.0983	0.89579	-0.387
Mof_O 	O 	0.70518	0.1448	0.89036	-0.385
Mof_Mn	Mn	0.87997	0.60878	0.0971	0.822
Mof_Mn	Mn	0.78874	0.52708	0.15917	0.874
Mof_Cl	Cl	0.80649	0.71309	0.09889	-0.509
Mof_N 	N 	0.85036	0.5735	0.00083	-0.158
Mof_N 	N 	0.81573	0.4638	0.89412	-0.1
Mof_N 	N 	0.93593	0.5106	0.06106	-0.187
Mof_N 	N 	0.94487	0.3809	0.98941	-0.091
Mof_N 	N 	0.98143	0.3816	0.03194	-0.171
Mof_H 	H 	0.0049	0.3376	0.0319	0.12
Mof_N 	N 	0.76891	0.6779	0.2227	-0.151
Mof_N 	N 	0.73892	0.868	0.2882	-0.152
Mof_N 	N 	0.71569	0.5894	0.12112	-0.182
Mof_N 	N 	0.65941	0.7163	0.13461	-0.088
Mof_N 	N 	0.64714	0.6448	0.08641	-0.171
Mof_H 	H 	0.6214	0.6469	0.064	0.116
Mof_C 	C 	0.80955	0.6016	0.97076	0.016
Mof_H 	H 	0.7923	0.6598	0.9856	0.051
Mof_C 	C 	0.79262	0.5464	0.91852	0.002
Mof_H 	H 	0.764	0.5675	0.8996	0.06
Mof_C 	C 	0.85626	0.4364	0.92323	0.003
Mof_H 	H 	0.8735	0.3793	0.9078	0.044
Mof_C 	C 	0.87385	0.4912	0.97665	0.021
Mof_C 	C 	0.91865	0.4607	0.00875	0.092
Mof_C 	C 	0.9764	0.4601	0.07452	0.119
Mof_C 	C 	0.01119	0.4866	0.12514	0.004
Mof_C 	C 	0.05151	0.4213	0.13431	-0.077
Mof_H 	H 	0.0565	0.3599	0.1081	0.059
Mof_C 	C 	0.08423	0.4475	0.1823	0.025
Mof_H 	H 	0.111	0.4037	0.1877	0.039
Mof_C 	C 	0.07761	0.5379	0.22234	-0.112
Mof_C 	C 	0.038	0.6056	0.21171	0.026
Mof_H 	H 	0.0334	0.6694	0.2373	0.031
Mof_C 	C 	0.00501	0.5807	0.16384	-0.076
Mof_H 	H 	0.9787	0.6274	0.1578	0.051
Mof_C 	C 	0.11141	0.5598	0.27648	0.384
Mof_C 	C 	0.79346	0.7161	0.27266	0.015
Mof_H 	H 	0.8212	0.6792	0.2859	0.038
Mof_C 	C 	0.77828	0.8099	0.30516	0.018
Mof_H 	H 	0.7961	0.8332	0.3399	0.03
Mof_C 	C 	0.71431	0.8285	0.23843	0.012
Mof_H 	H 	0.6868	0.8666	0.2249	0.043
Mof_C 	C 	0.72884	0.732	0.20652	0.024
Mof_C 	C 	0.70077	0.6809	0.15391	0.1
Mof_C 	C 	0.68061	0.5699	0.07834	0.119
Mof_C 	C 	0.67718	0.4786	0.03031	0.006
Mof_C 	C 	0.63788	0.4162	0.00558	-0.08
Mof_H 	H 	0.6128	0.4386	0.0168	0.057
Mof_C 	C 	0.63584	0.3207	0.96414	0.019
Mof_H 	H 	0.6094	0.2784	0.948	0.04
Mof_C 	C 	0.67302	0.2868	0.94624	-0.097
Mof_C 	C 	0.71158	0.3573	0.96836	0.021
Mof_H 	H 	0.7361	0.3408	0.955	0.044
Mof_C 	C 	0.71371	0.4525	0.01059	-0.07
Mof_H 	H 	0.7397	0.4987	0.0256	0.067
Mof_C 	C 	0.67166	0.1648	0.90653	0.394
Mof_O 	O 	0.59846	0.1155	0.31508	-0.384
Mof_O 	O 	0.64998	0.0202	0.27955	-0.377
Mof_O 	O 	0.13784	0.5983	0.89579	-0.387
Mof_O 	O 	0.20518	0.6448	0.89036	-0.385
Mof_Mn	Mn	0.37997	0.10878	0.0971	0.822
Mof_Mn	Mn	0.28874	0.02708	0.15917	0.873
Mof_Cl	Cl	0.30649	0.21309	0.09889	-0.51
Mof_N 	N 	0.35036	0.0735	0.00083	-0.158
Mof_N 	N 	0.31573	0.9638	0.89412	-0.1
Mof_N 	N 	0.43593	0.0106	0.06106	-0.188
Mof_N 	N 	0.44487	0.8809	0.98941	-0.091
Mof_N 	N 	0.48143	0.8816	0.03194	-0.171
Mof_H 	H 	0.5049	0.8376	0.0319	0.12
Mof_N 	N 	0.26891	0.1779	0.2227	-0.151
Mof_N 	N 	0.23892	0.368	0.2882	-0.152
Mof_N 	N 	0.21569	0.0894	0.12112	-0.182
Mof_N 	N 	0.15941	0.2163	0.13461	-0.088
Mof_N 	N 	0.14714	0.1448	0.08641	-0.171
Mof_H 	H 	0.1214	0.1469	0.064	0.116
Mof_C 	C 	0.30955	0.1016	0.97076	0.016
Mof_H 	H 	0.2923	0.1598	0.9856	0.051
Mof_C 	C 	0.29262	0.0464	0.91852	0.002
Mof_H 	H 	0.264	0.0675	0.8996	0.06
Mof_C 	C 	0.35626	0.9364	0.92323	0.003
Mof_H 	H 	0.3735	0.8793	0.9078	0.044
Mof_C 	C 	0.37385	0.9912	0.97665	0.021
Mof_C 	C 	0.41865	0.9607	0.00875	0.094
Mof_C 	C 	0.4764	0.9601	0.07452	0.119
Mof_C 	C 	0.51119	0.9866	0.12514	0.007
Mof_C 	C 	0.55151	0.9213	0.13431	-0.079
Mof_H 	H 	0.5565	0.8599	0.1081	0.06
Mof_C 	C 	0.58423	0.9475	0.1823	0.028
Mof_H 	H 	0.611	0.9037	0.1877	0.038
Mof_C 	C 	0.57761	0.0379	0.22234	-0.114
Mof_C 	C 	0.538	0.1056	0.21171	0.028
Mof_H 	H 	0.5334	0.1694	0.2373	0.031
Mof_C 	C 	0.50501	0.0807	0.16384	-0.079
Mof_H 	H 	0.4787	0.1274	0.1578	0.052
Mof_C 	C 	0.61141	0.0598	0.27648	0.385
Mof_C 	C 	0.29346	0.2161	0.27266	0.015
Mof_H 	H 	0.3212	0.1792	0.2859	0.038
Mof_C 	C 	0.27828	0.3099	0.30516	0.018
Mof_H 	H 	0.2961	0.3332	0.3399	0.03
Mof_C 	C 	0.21431	0.3285	0.23843	0.012
Mof_H 	H 	0.1868	0.3666	0.2249	0.042
Mof_C 	C 	0.22884	0.232	0.20652	0.023
Mof_C 	C 	0.20077	0.1809	0.15391	0.1
Mof_C 	C 	0.18061	0.0699	0.07834	0.119
Mof_C 	C 	0.17718	0.9786	0.03031	0.007
Mof_C 	C 	0.13788	0.9162	0.00558	-0.08
Mof_H 	H 	0.1128	0.9386	0.0168	0.057
Mof_C 	C 	0.13584	0.8207	0.96414	0.018
Mof_H 	H 	0.1094	0.7784	0.948	0.04
Mof_C 	C 	0.17302	0.7868	0.94624	-0.097
Mof_C 	C 	0.21158	0.8573	0.96836	0.02
Mof_H 	H 	0.2361	0.8408	0.955	0.044
Mof_C 	C 	0.21371	0.9525	0.01059	-0.069
Mof_H 	H 	0.2397	0.9987	0.0256	0.067
Mof_C 	C 	0.17166	0.6648	0.90653	0.394
Mof_O 	O 	0.09846	0.3845	0.81508	-0.384
Mof_O 	O 	0.14998	0.4798	0.77955	-0.376
Mof_O 	O 	0.63784	0.9017	0.39579	-0.387
Mof_O 	O 	0.70518	0.8552	0.39036	-0.385
Mof_Mn	Mn	0.87997	0.39122	0.5971	0.822
Mof_Mn	Mn	0.78874	0.47292	0.65917	0.874
Mof_Cl	Cl	0.80649	0.28691	0.59889	-0.51
Mof_N 	N 	0.85036	0.4265	0.50083	-0.158
Mof_N 	N 	0.81573	0.5362	0.39412	-0.099
Mof_N 	N 	0.93593	0.4894	0.56106	-0.187
Mof_N 	N 	0.94487	0.6191	0.48941	-0.091
Mof_N 	N 	0.98143	0.6184	0.53194	-0.171
Mof_H 	H 	0.0049	0.6624	0.5319	0.12
Mof_N 	N 	0.76891	0.3221	0.7227	-0.151
Mof_N 	N 	0.73892	0.132	0.7882	-0.152
Mof_N 	N 	0.71569	0.4106	0.62112	-0.182
Mof_N 	N 	0.65941	0.2837	0.63461	-0.088
Mof_N 	N 	0.64714	0.3552	0.58641	-0.171
Mof_H 	H 	0.6214	0.3531	0.564	0.116
Mof_C 	C 	0.80955	0.3984	0.47076	0.016
Mof_H 	H 	0.7923	0.3402	0.4856	0.051
Mof_C 	C 	0.79262	0.4536	0.41852	0.002
Mof_H 	H 	0.764	0.4325	0.3996	0.06
Mof_C 	C 	0.85626	0.5636	0.42323	0.003
Mof_H 	H 	0.8735	0.6207	0.4078	0.044
Mof_C 	C 	0.87385	0.5088	0.47665	0.021
Mof_C 	C 	0.91865	0.5393	0.50875	0.092
Mof_C 	C 	0.9764	0.5399	0.57452	0.119
Mof_C 	C 	0.01119	0.5134	0.62514	0.004
Mof_C 	C 	0.05151	0.5787	0.63431	-0.077
Mof_H 	H 	0.0565	0.6401	0.6081	0.059
Mof_C 	C 	0.08423	0.5525	0.6823	0.025
Mof_H 	H 	0.111	0.5963	0.6877	0.039
Mof_C 	C 	0.07761	0.4621	0.72234	-0.112
Mof_C 	C 	0.038	0.3944	0.71171	0.026
Mof_H 	H 	0.0334	0.3306	0.7373	0.032
Mof_C 	C 	0.00501	0.4193	0.66384	-0.076
Mof_H 	H 	0.9787	0.3726	0.6578	0.051
Mof_C 	C 	0.11141	0.4402	0.77648	0.384
Mof_C 	C 	0.79346	0.2839	0.77266	0.015
Mof_H 	H 	0.8212	0.3208	0.7859	0.038
Mof_C 	C 	0.77828	0.1901	0.80516	0.018
Mof_H 	H 	0.7961	0.1668	0.8399	0.03
Mof_C 	C 	0.71431	0.1715	0.73843	0.012
Mof_H 	H 	0.6868	0.1334	0.7249	0.043
Mof_C 	C 	0.72884	0.268	0.70652	0.024
Mof_C 	C 	0.70077	0.3191	0.65391	0.1
Mof_C 	C 	0.68061	0.4301	0.57834	0.12
Mof_C 	C 	0.67718	0.5214	0.53031	0.006
Mof_C 	C 	0.63788	0.5838	0.50558	-0.08
Mof_H 	H 	0.6128	0.5614	0.5168	0.057
Mof_C 	C 	0.63584	0.6793	0.46414	0.019
Mof_H 	H 	0.6094	0.7216	0.448	0.04
Mof_C 	C 	0.67302	0.7132	0.44624	-0.097
Mof_C 	C 	0.71158	0.6427	0.46836	0.02
Mof_H 	H 	0.7361	0.6592	0.455	0.044
Mof_C 	C 	0.71371	0.5475	0.51059	-0.069
Mof_H 	H 	0.7397	0.5013	0.5256	0.067
Mof_C 	C 	0.67166	0.8352	0.40653	0.394
Mof_O 	O 	0.59846	0.8845	0.81508	-0.384
Mof_O 	O 	0.64998	0.9798	0.77955	-0.377
Mof_O 	O 	0.13784	0.4017	0.39579	-0.388
Mof_O 	O 	0.20518	0.3552	0.39036	-0.385
Mof_Mn	Mn	0.37997	0.89122	0.5971	0.822
Mof_Mn	Mn	0.28874	0.97292	0.65917	0.873
Mof_Cl	Cl	0.30649	0.78691	0.59889	-0.51
Mof_N 	N 	0.35036	0.9265	0.50083	-0.158
Mof_N 	N 	0.31573	0.0362	0.39412	-0.1
Mof_N 	N 	0.43593	0.9894	0.56106	-0.188
Mof_N 	N 	0.44487	0.1191	0.48941	-0.091
Mof_N 	N 	0.48143	0.1184	0.53194	-0.171
Mof_H 	H 	0.5049	0.1624	0.5319	0.12
Mof_N 	N 	0.26891	0.8221	0.7227	-0.151
Mof_N 	N 	0.23892	0.632	0.7882	-0.152
Mof_N 	N 	0.21569	0.9106	0.62112	-0.182
Mof_N 	N 	0.15941	0.7837	0.63461	-0.088
Mof_N 	N 	0.14714	0.8552	0.58641	-0.171
Mof_H 	H 	0.1214	0.8531	0.564	0.116
Mof_C 	C 	0.30955	0.8984	0.47076	0.016
Mof_H 	H 	0.2923	0.8402	0.4856	0.051
Mof_C 	C 	0.29262	0.9536	0.41852	0.002
Mof_H 	H 	0.264	0.9325	0.3996	0.06
Mof_C 	C 	0.35626	0.0636	0.42323	0.003
Mof_H 	H 	0.3735	0.1207	0.4078	0.044
Mof_C 	C 	0.37385	0.0088	0.47665	0.021
Mof_C 	C 	0.41865	0.0393	0.50875	0.093
Mof_C 	C 	0.4764	0.0399	0.57452	0.119
Mof_C 	C 	0.51119	0.0134	0.62514	0.007
Mof_C 	C 	0.55151	0.0787	0.63431	-0.079
Mof_H 	H 	0.5565	0.1401	0.6081	0.06
Mof_C 	C 	0.58423	0.0525	0.6823	0.028
Mof_H 	H 	0.611	0.0963	0.6877	0.038
Mof_C 	C 	0.57761	0.9621	0.72234	-0.114
Mof_C 	C 	0.538	0.8944	0.71171	0.028
Mof_H 	H 	0.5334	0.8306	0.7373	0.031
Mof_C 	C 	0.50501	0.9193	0.66384	-0.079
Mof_H 	H 	0.4787	0.8726	0.6578	0.052
Mof_C 	C 	0.61141	0.9402	0.77648	0.385
Mof_C 	C 	0.29346	0.7839	0.77266	0.015
Mof_H 	H 	0.3212	0.8208	0.7859	0.038
Mof_C 	C 	0.27828	0.6901	0.80516	0.018
Mof_H 	H 	0.2961	0.6668	0.8399	0.03
Mof_C 	C 	0.21431	0.6715	0.73843	0.012
Mof_H 	H 	0.1868	0.6334	0.7249	0.042
Mof_C 	C 	0.22884	0.768	0.70652	0.023
Mof_C 	C 	0.20077	0.8191	0.65391	0.1
Mof_C 	C 	0.18061	0.9301	0.57834	0.119
Mof_C 	C 	0.17718	0.0214	0.53031	0.007
Mof_C 	C 	0.13788	0.0838	0.50558	-0.08
Mof_H 	H 	0.1128	0.0614	0.5168	0.057
Mof_C 	C 	0.13584	0.1793	0.46414	0.019
Mof_H 	H 	0.1094	0.2216	0.448	0.04
Mof_C 	C 	0.17302	0.2132	0.44624	-0.098
Mof_C 	C 	0.21158	0.1427	0.46836	0.021
Mof_H 	H 	0.2361	0.1592	0.455	0.043
Mof_C 	C 	0.21371	0.0475	0.51059	-0.07
Mof_H 	H 	0.2397	0.0013	0.5256	0.068
Mof_C 	C 	0.17166	0.3352	0.40653	0.394
Mof_O 	O 	0.90154	0.3845	0.68492	-0.384
Mof_O 	O 	0.85002	0.4798	0.72045	-0.377
Mof_O 	O 	0.36216	0.9017	0.10421	-0.387
Mof_O 	O 	0.29482	0.8552	0.10964	-0.385
Mof_Mn	Mn	0.12003	0.39122	0.9029	0.822
Mof_Mn	Mn	0.21126	0.47292	0.84083	0.874
Mof_Cl	Cl	0.19351	0.28691	0.90111	-0.509
Mof_N 	N 	0.14964	0.4265	0.99917	-0.158
Mof_N 	N 	0.18427	0.5362	0.10588	-0.1
Mof_N 	N 	0.06407	0.4894	0.93894	-0.187
Mof_N 	N 	0.05513	0.6191	0.01059	-0.091
Mof_N 	N 	0.01857	0.6184	0.96806	-0.171
Mof_H 	H 	0.9951	0.6624	0.9681	0.12
Mof_N 	N 	0.23109	0.3221	0.7773	-0.151
Mof_N 	N 	0.26108	0.132	0.7118	-0.152
Mof_N 	N 	0.28431	0.4106	0.87888	-0.182
Mof_N 	N 	0.34059	0.2837	0.86539	-0.088
Mof_N 	N 	0.35286	0.3552	0.91359	-0.171
Mof_H 	H 	0.3786	0.3531	0.936	0.116
Mof_C 	C 	0.19045	0.3984	0.02924	0.016
Mof_H 	H 	0.2077	0.3402	0.0144	0.051
Mof_C 	C 	0.20738	0.4536	0.08148	0.002
Mof_H 	H 	0.236	0.4325	0.1004	0.06
Mof_C 	C 	0.14374	0.5636	0.07677	0.003
Mof_H 	H 	0.1265	0.6207	0.0922	0.044
Mof_C 	C 	0.12615	0.5088	0.02335	0.021
Mof_C 	C 	0.08135	0.5393	0.99125	0.092
Mof_C 	C 	0.0236	0.5399	0.92548	0.119
Mof_C 	C 	0.98881	0.5134	0.87486	0.004
Mof_C 	C 	0.94849	0.5787	0.86569	-0.077
Mof_H 	H 	0.9435	0.6401	0.8919	0.059
Mof_C 	C 	0.91577	0.5525	0.8177	0.025
Mof_H 	H 	0.889	0.5963	0.8123	0.039
Mof_C 	C 	0.92239	0.4621	0.77766	-0.112
Mof_C 	C 	0.962	0.3944	0.78829	0.026
Mof_H 	H 	0.9666	0.3306	0.7627	0.031
Mof_C 	C 	0.99499	0.4193	0.83616	-0.076
Mof_H 	H 	0.0213	0.3726	0.8422	0.051
Mof_C 	C 	0.88859	0.4402	0.72352	0.384
Mof_C 	C 	0.20654	0.2839	0.72734	0.015
Mof_H 	H 	0.1788	0.3208	0.7141	0.038
Mof_C 	C 	0.22172	0.1901	0.69484	0.018
Mof_H 	H 	0.2039	0.1668	0.6601	0.03
Mof_C 	C 	0.28569	0.1715	0.76157	0.012
Mof_H 	H 	0.3132	0.1334	0.7751	0.043
Mof_C 	C 	0.27116	0.268	0.79348	0.024
Mof_C 	C 	0.29923	0.3191	0.84609	0.1
Mof_C 	C 	0.31939	0.4301	0.92166	0.119
Mof_C 	C 	0.32282	0.5214	0.96969	0.006
Mof_C 	C 	0.36212	0.5838	0.99442	-0.08
Mof_H 	H 	0.3872	0.5614	0.9832	0.057
Mof_C 	C 	0.36416	0.6793	0.03586	0.019
Mof_H 	H 	0.3906	0.7216	0.052	0.04
Mof_C 	C 	0.32698	0.7132	0.05376	-0.097
Mof_C 	C 	0.28842	0.6427	0.03164	0.021
Mof_H 	H 	0.2639	0.6592	0.045	0.044
Mof_C 	C 	0.28629	0.5475	0.98941	-0.07
Mof_H 	H 	0.2603	0.5013	0.9744	0.067
Mof_C 	C 	0.32834	0.8352	0.09347	0.394
Mof_O 	O 	0.40154	0.8845	0.68492	-0.384
Mof_O 	O 	0.35002	0.9798	0.72045	-0.377
Mof_O 	O 	0.86216	0.4017	0.10421	-0.387
Mof_O 	O 	0.79482	0.3552	0.10964	-0.385
Mof_Mn	Mn	0.62003	0.89122	0.9029	0.822
Mof_Mn	Mn	0.71126	0.97292	0.84083	0.873
Mof_Cl	Cl	0.69351	0.78691	0.90111	-0.51
Mof_N 	N 	0.64964	0.9265	0.99917	-0.158
Mof_N 	N 	0.68427	0.0362	0.10588	-0.1
Mof_N 	N 	0.56407	0.9894	0.93894	-0.188
Mof_N 	N 	0.55513	0.1191	0.01059	-0.091
Mof_N 	N 	0.51857	0.1184	0.96806	-0.171
Mof_H 	H 	0.4951	0.1624	0.9681	0.12
Mof_N 	N 	0.73109	0.8221	0.7773	-0.151
Mof_N 	N 	0.76108	0.632	0.7118	-0.152
Mof_N 	N 	0.78431	0.9106	0.87888	-0.182
Mof_N 	N 	0.84059	0.7837	0.86539	-0.088
Mof_N 	N 	0.85286	0.8552	0.91359	-0.171
Mof_H 	H 	0.8786	0.8531	0.936	0.116
Mof_C 	C 	0.69045	0.8984	0.02924	0.016
Mof_H 	H 	0.7077	0.8402	0.0144	0.051
Mof_C 	C 	0.70738	0.9536	0.08148	0.002
Mof_H 	H 	0.736	0.9325	0.1004	0.06
Mof_C 	C 	0.64374	0.0636	0.07677	0.003
Mof_H 	H 	0.6265	0.1207	0.0922	0.044
Mof_C 	C 	0.62615	0.0088	0.02335	0.021
Mof_C 	C 	0.58135	0.0393	0.99125	0.094
Mof_C 	C 	0.5236	0.0399	0.92548	0.119
Mof_C 	C 	0.48881	0.0134	0.87486	0.007
Mof_C 	C 	0.44849	0.0787	0.86569	-0.079
Mof_H 	H 	0.4435	0.1401	0.8919	0.06
Mof_C 	C 	0.41577	0.0525	0.8177	0.028
Mof_H 	H 	0.389	0.0963	0.8123	0.038
Mof_C 	C 	0.42239	0.9621	0.77766	-0.114
Mof_C 	C 	0.462	0.8944	0.78829	0.028
Mof_H 	H 	0.4666	0.8306	0.7627	0.031
Mof_C 	C 	0.49499	0.9193	0.83616	-0.079
Mof_H 	H 	0.5213	0.8726	0.8422	0.052
Mof_C 	C 	0.38859	0.9402	0.72352	0.385
Mof_C 	C 	0.70654	0.7839	0.72734	0.015
Mof_H 	H 	0.6788	0.8208	0.7141	0.038
Mof_C 	C 	0.72172	0.6901	0.69484	0.018
Mof_H 	H 	0.7039	0.6668	0.6601	0.03
Mof_C 	C 	0.78569	0.6715	0.76157	0.012
Mof_H 	H 	0.8132	0.6334	0.7751	0.042
Mof_C 	C 	0.77116	0.768	0.79348	0.023
Mof_C 	C 	0.79923	0.8191	0.84609	0.1
Mof_C 	C 	0.81939	0.9301	0.92166	0.119
Mof_C 	C 	0.82282	0.0214	0.96969	0.007
Mof_C 	C 	0.86212	0.0838	0.99442	-0.08
Mof_H 	H 	0.8872	0.0614	0.9832	0.057
Mof_C 	C 	0.86416	0.1793	0.03586	0.018
Mof_H 	H 	0.8906	0.2216	0.052	0.04
Mof_C 	C 	0.82698	0.2132	0.05376	-0.097
Mof_C 	C 	0.78842	0.1427	0.03164	0.02
Mof_H 	H 	0.7639	0.1592	0.045	0.044
Mof_C 	C 	0.78629	0.0475	0.98941	-0.069
Mof_H 	H 	0.7603	0.0013	0.9744	0.067
Mof_C 	C 	0.82834	0.3352	0.09347	0.394
_end
