data_functionalizedCrystal
_audit_creation_method	'EQeq! by Chris Wilmer'
_symmetry_space_group_name_H-M	'P1'
_symmetry_Int_Tables_number	1
_symmetry_cell_setting	triclinic
loop_
_symmetry_equiv_pos_as_xyz
  x,y,z
_cell_length_a	14.5755
_cell_length_b	14.5755
_cell_length_c	14.5755
_cell_angle_alpha	109.471
_cell_angle_beta	109.471
_cell_angle_gamma	109.471
loop_
_atom_site_label
_atom_site_type_symbol
_atom_site_fract_x
_atom_site_fract_y
_atom_site_fract_z
_atom_site_charge
Mof_Zn	Zn	0.75	0.5	0.25	1.172
Mof_Zn	Zn	0.25	0.5	0.75	1.172
Mof_Zn	Zn	0.25	0.75	0.5	1.172
Mof_Zn	Zn	0.75	0.25	0.5	1.172
Mof_Zn	Zn	0.5	0.75	0.25	1.172
Mof_Zn	Zn	0.5	0.25	0.75	1.172
Mof_H 	H 	0.6708	0.5387	0.4367	-0.001
Mof_H 	H 	0.102	0.2341	0.5633	0
Mof_H 	H 	0.898	0.4613	0.1321	-0.005
Mof_H 	H 	0.3292	0.7659	0.8679	-0.001
Mof_H 	H 	0.1321	0.898	0.4613	-0.006
Mof_H 	H 	0.8679	0.3292	0.7659	-0.001
Mof_H 	H 	0.4367	0.6708	0.5387	-0.002
Mof_H 	H 	0.5633	0.102	0.2341	-0.001
Mof_H 	H 	0.2341	0.5633	0.102	-0.001
Mof_H 	H 	0.5387	0.4367	0.6708	-0.002
Mof_H 	H 	0.7659	0.8679	0.3292	-0.001
Mof_H 	H 	0.4613	0.1321	0.898	-0.006
Mof_H 	H 	0.2341	0.102	0.5633	-0.001
Mof_H 	H 	0.5387	0.6708	0.4367	-0.002
Mof_H 	H 	0.7659	0.3292	0.8679	-0.001
Mof_H 	H 	0.4613	0.898	0.1321	-0.006
Mof_H 	H 	0.6708	0.4367	0.5387	-0.002
Mof_H 	H 	0.102	0.5633	0.2341	-0.001
Mof_H 	H 	0.898	0.1321	0.4613	-0.006
Mof_H 	H 	0.3292	0.8679	0.7659	-0.001
Mof_H 	H 	0.1321	0.4613	0.898	-0.006
Mof_H 	H 	0.8679	0.7659	0.3292	-0.001
Mof_H 	H 	0.4367	0.5387	0.6708	-0.002
Mof_H 	H 	0.5633	0.2341	0.102	-0.001
Mof_H 	H 	0.8032	0.3591	0.3591	-0.078
Mof_H 	H 	-9.53868e-17	0.4441	0.6409	-0.078
Mof_H 	H 	-7.15401e-17	0.6409	0.4441	-0.078
Mof_H 	H 	0.1968	0.5559	0.5559	-0.079
Mof_H 	H 	0.4441	0	0.6409	-0.078
Mof_H 	H 	0.5559	0.1968	0.5559	-0.079
Mof_H 	H 	0.3591	0.8032	0.3591	-0.078
Mof_H 	H 	0.6409	4.76934e-17	0.4441	-0.078
Mof_H 	H 	0.4441	0.6409	-0	-0.078
Mof_H 	H 	0.3591	0.3591	0.8032	-0.078
Mof_H 	H 	0.5559	0.5559	0.1968	-0.079
Mof_H 	H 	0.6409	0.4441	-0	-0.078
Mof_C 	C 	0.6921	0.4828	0.4271	-0.012
Mof_C 	C 	0.0557	0.265	0.5729	-0.021
Mof_C 	C 	0.9443	0.5172	0.2093	-0.004
Mof_C 	C 	0.3079	0.735	0.7907	-0.012
Mof_C 	C 	0.2093	0.9443	0.5172	-0.004
Mof_C 	C 	0.7907	0.3079	0.735	-0.012
Mof_C 	C 	0.4271	0.6921	0.4828	-0.012
Mof_C 	C 	0.5729	0.0557	0.265	-0.021
Mof_C 	C 	0.265	0.5729	0.0557	-0.021
Mof_C 	C 	0.4828	0.4271	0.6921	-0.012
Mof_C 	C 	0.735	0.7907	0.3079	-0.012
Mof_C 	C 	0.5172	0.2093	0.9443	-0.004
Mof_C 	C 	0.265	0.0557	0.5729	-0.021
Mof_C 	C 	0.4828	0.6921	0.4271	-0.012
Mof_C 	C 	0.735	0.3079	0.7907	-0.012
Mof_C 	C 	0.5172	0.9443	0.2093	-0.004
Mof_C 	C 	0.6921	0.4271	0.4828	-0.012
Mof_C 	C 	0.0557	0.5729	0.265	-0.021
Mof_C 	C 	0.9443	0.2093	0.5172	-0.004
Mof_C 	C 	0.3079	0.7907	0.735	-0.012
Mof_C 	C 	0.2093	0.5172	0.9443	-0.004
Mof_C 	C 	0.7907	0.735	0.3079	-0.012
Mof_C 	C 	0.4271	0.4828	0.6921	-0.012
Mof_C 	C 	0.5729	0.265	0.0557	-0.021
Mof_C 	C 	0.75844	0.38342	0.38342	0.132
Mof_C 	C 	-0	0.37502	0.61658	0.127
Mof_C 	C 	-1.19233e-17	0.61658	0.37502	0.127
Mof_C 	C 	0.24156	0.62498	0.62498	0.132
Mof_C 	C 	0.37502	0	0.61658	0.127
Mof_C 	C 	0.62498	0.24156	0.62498	0.132
Mof_C 	C 	0.38342	0.75844	0.38342	0.132
Mof_C 	C 	0.61658	2.38467e-17	0.37502	0.127
Mof_C 	C 	0.37502	0.61658	-0	0.127
Mof_C 	C 	0.38342	0.38342	0.75844	0.132
Mof_C 	C 	0.62498	0.62498	0.24156	0.132
Mof_C 	C 	0.61658	0.37502	-0	0.127
Mof_N 	N 	0.72769	0.44686	0.35367	-0.305
Mof_N 	N 	0.09319	0.37402	0.64633	-0.303
Mof_N 	N 	0.90681	0.55314	0.28083	-0.303
Mof_N 	N 	0.27231	0.62598	0.71917	-0.305
Mof_N 	N 	0.28083	0.90681	0.55314	-0.303
Mof_N 	N 	0.71917	0.27231	0.62598	-0.305
Mof_N 	N 	0.35367	0.72769	0.44686	-0.305
Mof_N 	N 	0.64633	0.09319	0.37402	-0.303
Mof_N 	N 	0.37402	0.64633	0.09319	-0.303
Mof_N 	N 	0.44686	0.35367	0.72769	-0.305
Mof_N 	N 	0.62598	0.71917	0.27231	-0.305
Mof_N 	N 	0.55314	0.28083	0.90681	-0.303
Mof_N 	N 	0.37402	0.09319	0.64633	-0.303
Mof_N 	N 	0.44686	0.72769	0.35367	-0.305
Mof_N 	N 	0.62598	0.27231	0.71917	-0.305
Mof_N 	N 	0.55314	0.90681	0.28083	-0.303
Mof_N 	N 	0.72769	0.35367	0.44686	-0.305
Mof_N 	N 	0.09319	0.64633	0.37402	-0.303
Mof_N 	N 	0.90681	0.28083	0.55314	-0.303
Mof_N 	N 	0.27231	0.71917	0.62598	-0.305
Mof_N 	N 	0.28083	0.55314	0.90681	-0.303
Mof_N 	N 	0.71917	0.62598	0.27231	-0.305
Mof_N 	N 	0.35367	0.44686	0.72769	-0.305
Mof_N 	N 	0.64633	0.37402	0.09319	-0.303
_end
