data_functionalizedCrystal
_audit_creation_method	'EQeq! by Chris Wilmer'
_symmetry_space_group_name_H-M	'P1'
_symmetry_Int_Tables_number	1
_symmetry_cell_setting	triclinic
loop_
_symmetry_equiv_pos_as_xyz
  x,y,z
_cell_length_a	20.355
_cell_length_b	15.6488
_cell_length_c	9.0517
_cell_angle_alpha	90
_cell_angle_beta	105.781
_cell_angle_gamma	90
loop_
_atom_site_label
_atom_site_type_symbol
_atom_site_fract_x
_atom_site_fract_y
_atom_site_fract_z
_atom_site_charge
Mof_Ga	Ga	0.33968	0.36254	0.16782	6.867
Mof_Ga	Ga	0.2475	0.11722	0.43387	4.528
Mof_P 	P 	0.29287	0.51985	0.36591	0.928
Mof_P 	P 	0.35614	0.26263	0.49504	1.114
Mof_O 	O 	0.3327	0.4634	0.2851	-0.234
Mof_O 	O 	0.43762	0.3609	0.2297	-1.271
Mof_O 	O 	0.34313	0.5688	0.4925	-1.361
Mof_O 	O 	0.33189	0.2838	0.3272	-1.563
Mof_O 	O 	0.23646	0.3461	0.0848	-1.242
Mof_O 	O 	0.16208	0.2474	0.9621	-1.149
Mof_O 	O 	0.3224	0.1788	0.5251	-1.317
Mof_O 	O 	0.24672	0.5827	0.2523	-1.294
Mof_O 	O 	0.24184	0.4694	0.4302	-1.32
Mof_O 	O 	0.33512	0.3323	0.593	-1.321
Mof_O 	O 	0.43244	0.2518	0.5549	-0.295
Mof_O 	O 	0.493	0.2465	0.1119	-0.325
Mof_H 	H 	0.356	0.434	0.241	-1.663
Mof_C 	C 	0.2206	0.2766	0.0137	0.391
Mof_Ga	Ga	0.83968	0.86254	0.16782	6.862
Mof_Ga	Ga	0.7475	0.61722	0.43387	4.541
Mof_P 	P 	0.79287	0.01985	0.36591	0.924
Mof_P 	P 	0.85614	0.76263	0.49504	1.114
Mof_O 	O 	0.8327	0.9634	0.2851	-0.228
Mof_O 	O 	0.93762	0.8609	0.2297	-1.213
Mof_O 	O 	0.84313	0.0688	0.4925	-1.352
Mof_O 	O 	0.83189	0.7838	0.3272	-1.557
Mof_O 	O 	0.73646	0.8461	0.0848	-1.24
Mof_O 	O 	0.66208	0.7474	0.9621	-1.155
Mof_O 	O 	0.8224	0.6788	0.5251	-1.314
Mof_O 	O 	0.74672	0.0827	0.2523	-1.287
Mof_O 	O 	0.74184	0.9694	0.4302	-1.315
Mof_O 	O 	0.83512	0.8323	0.593	-1.317
Mof_O 	O 	0.93244	0.7518	0.5549	-0.265
Mof_O 	O 	0.993	0.7465	0.1119	-0.247
Mof_H 	H 	0.856	0.934	0.241	-1.66
Mof_C 	C 	0.7206	0.7766	0.0137	0.409
Mof_Ga	Ga	0.66032	0.36254	0.33218	6.871
Mof_Ga	Ga	0.7525	0.11722	0.06613	4.511
Mof_P 	P 	0.70713	0.51985	0.13409	0.928
Mof_P 	P 	0.64386	0.26263	0.00496	1.107
Mof_O 	O 	0.6673	0.4634	0.2149	-0.234
Mof_O 	O 	0.56238	0.3609	0.2703	-1.272
Mof_O 	O 	0.65687	0.5688	0.0075	-1.361
Mof_O 	O 	0.66811	0.2838	0.1728	-1.562
Mof_O 	O 	0.76354	0.3461	0.4152	-1.237
Mof_O 	O 	0.83792	0.2474	0.5379	-1.14
Mof_O 	O 	0.6776	0.1788	0.9749	-1.31
Mof_O 	O 	0.75328	0.5827	0.2477	-1.289
Mof_O 	O 	0.75816	0.4694	0.0698	-1.315
Mof_O 	O 	0.66488	0.3323	0.907	-1.322
Mof_O 	O 	0.56756	0.2518	0.9451	-0.292
Mof_O 	O 	0.507	0.2465	0.3881	-0.324
Mof_H 	H 	0.644	0.434	0.259	-1.665
Mof_C 	C 	0.7794	0.2766	0.4863	0.399
Mof_Ga	Ga	0.16032	0.86254	0.33218	6.852
Mof_Ga	Ga	0.2525	0.61722	0.06613	4.533
Mof_P 	P 	0.20713	0.01985	0.13409	0.92
Mof_P 	P 	0.14386	0.76263	0.00496	1.12
Mof_O 	O 	0.1673	0.9634	0.2149	-0.233
Mof_O 	O 	0.06238	0.8609	0.2703	-1.272
Mof_O 	O 	0.15687	0.0688	0.0075	-1.369
Mof_O 	O 	0.16811	0.7838	0.1728	-1.564
Mof_O 	O 	0.26354	0.8461	0.4152	-1.237
Mof_O 	O 	0.33792	0.7474	0.5379	-1.149
Mof_O 	O 	0.1776	0.6788	0.9749	-1.326
Mof_O 	O 	0.25328	0.0827	0.2477	-1.291
Mof_O 	O 	0.25816	0.9694	0.0698	-1.307
Mof_O 	O 	0.16488	0.8323	0.907	-1.326
Mof_O 	O 	0.06756	0.7518	0.9451	-0.331
Mof_O 	O 	0.007	0.7465	0.3881	-0.35
Mof_H 	H 	0.144	0.934	0.259	-1.664
Mof_C 	C 	0.2794	0.7766	0.4863	0.399
Mof_Ga	Ga	0.66032	0.63746	0.83218	6.873
Mof_Ga	Ga	0.7525	0.88278	0.56613	4.534
Mof_P 	P 	0.70713	0.48015	0.63409	0.928
Mof_P 	P 	0.64386	0.73737	0.50496	1.115
Mof_O 	O 	0.6673	0.5366	0.7149	-0.234
Mof_O 	O 	0.56238	0.6391	0.7703	-1.272
Mof_O 	O 	0.65687	0.4312	0.5075	-1.361
Mof_O 	O 	0.66811	0.7162	0.6728	-1.564
Mof_O 	O 	0.76354	0.6539	0.9152	-1.236
Mof_O 	O 	0.83792	0.7526	0.0379	-1.137
Mof_O 	O 	0.6776	0.8212	0.4749	-1.319
Mof_O 	O 	0.75328	0.4173	0.7477	-1.29
Mof_O 	O 	0.75816	0.5306	0.5698	-1.314
Mof_O 	O 	0.66488	0.6677	0.407	-1.324
Mof_O 	O 	0.56756	0.7482	0.4451	-0.295
Mof_O 	O 	0.507	0.7535	0.8881	-0.325
Mof_H 	H 	0.644	0.566	0.759	-1.665
Mof_C 	C 	0.7794	0.7234	0.9863	0.39
Mof_Ga	Ga	0.16032	0.13746	0.83218	6.865
Mof_Ga	Ga	0.2525	0.38278	0.56613	4.529
Mof_P 	P 	0.20713	0.98015	0.63409	0.922
Mof_P 	P 	0.14386	0.23737	0.50496	1.115
Mof_O 	O 	0.1673	0.0366	0.7149	-0.234
Mof_O 	O 	0.06238	0.1391	0.7703	-1.273
Mof_O 	O 	0.15687	0.9312	0.5075	-1.364
Mof_O 	O 	0.16811	0.2162	0.6728	-1.566
Mof_O 	O 	0.26354	0.1539	0.9152	-1.239
Mof_O 	O 	0.33792	0.2526	0.0379	-1.154
Mof_O 	O 	0.1776	0.3212	0.4749	-1.324
Mof_O 	O 	0.25328	0.9173	0.7477	-1.287
Mof_O 	O 	0.25816	0.0306	0.5698	-1.314
Mof_O 	O 	0.16488	0.1677	0.407	-1.328
Mof_O 	O 	0.06756	0.2482	0.4451	-0.328
Mof_O 	O 	0.007	0.2535	0.8881	-0.348
Mof_H 	H 	0.144	0.066	0.759	-1.666
Mof_C 	C 	0.2794	0.2234	0.9863	0.409
Mof_Ga	Ga	0.33968	0.63746	0.66782	6.869
Mof_Ga	Ga	0.2475	0.88278	0.93387	4.509
Mof_P 	P 	0.29287	0.48015	0.86591	0.928
Mof_P 	P 	0.35614	0.73737	0.99504	1.109
Mof_O 	O 	0.3327	0.5366	0.7851	-0.234
Mof_O 	O 	0.43762	0.6391	0.7297	-1.272
Mof_O 	O 	0.34313	0.4312	0.9925	-1.359
Mof_O 	O 	0.33189	0.7162	0.8272	-1.562
Mof_O 	O 	0.23646	0.6539	0.5848	-1.244
Mof_O 	O 	0.16208	0.7526	0.4621	-1.153
Mof_O 	O 	0.3224	0.8212	0.0251	-1.31
Mof_O 	O 	0.24672	0.4173	0.7523	-1.293
Mof_O 	O 	0.24184	0.5306	0.9302	-1.32
Mof_O 	O 	0.33512	0.6677	0.093	-1.32
Mof_O 	O 	0.43244	0.7482	0.0549	-0.292
Mof_O 	O 	0.493	0.7535	0.6119	-0.324
Mof_H 	H 	0.356	0.566	0.741	-1.664
Mof_C 	C 	0.2206	0.7234	0.5137	0.4
Mof_Ga	Ga	0.83968	0.13746	0.66782	6.85
Mof_Ga	Ga	0.7475	0.38278	0.93387	4.546
Mof_P 	P 	0.79287	0.98015	0.86591	0.921
Mof_P 	P 	0.85614	0.23737	0.99504	1.119
Mof_O 	O 	0.8327	0.0366	0.7851	-0.227
Mof_O 	O 	0.93762	0.1391	0.7297	-1.213
Mof_O 	O 	0.84313	0.9312	0.9925	-1.356
Mof_O 	O 	0.83189	0.2162	0.8272	-1.555
Mof_O 	O 	0.73646	0.1539	0.5848	-1.238
Mof_O 	O 	0.66208	0.2526	0.4621	-1.15
Mof_O 	O 	0.8224	0.3212	0.0251	-1.317
Mof_O 	O 	0.74672	0.9173	0.7523	-1.291
Mof_O 	O 	0.74184	0.0306	0.9302	-1.307
Mof_O 	O 	0.83512	0.1677	0.093	-1.315
Mof_O 	O 	0.93244	0.2482	0.0549	-0.267
Mof_O 	O 	0.993	0.2535	0.6119	-0.25
Mof_H 	H 	0.856	0.066	0.741	-1.658
Mof_C 	C 	0.7206	0.2234	0.5137	0.4
Mof_P 	P 	0.5	0.30519	0.25	1.014
Mof_P 	P 	5.30194e-34	0.80519	0.25	0.91
Mof_P 	P 	0.5	0.69481	0.75	1.014
Mof_P 	P 	-1.02436e-17	0.19481	0.75	0.912
_end
