# CIF file generated by openbabel 3.1.0, see https://openbabel.org
data_I
_chemical_name_common 'image0'
_cell_length_a 16.2244
_cell_length_b 20.9869
_cell_length_c 12.8491
_cell_angle_alpha 90
_cell_angle_beta 90
_cell_angle_gamma 90
_space_group_name_H-M_alt 'P 1'
_space_group_name_Hall 'P 1'
loop_
    _symmetry_equiv_pos_as_xyz
    x,y,z
loop_
    _atom_site_label
    _atom_site_type_symbol
    _atom_site_fract_x
    _atom_site_fract_y
    _atom_site_fract_z
    _atom_site_occupancy
    Co1      Co       0.66923    0.19686    0.02582    1.000
    C1       C        0.77160    0.28260    0.11860    1.000
    C2       C        0.85290    0.30881    0.15160    1.000
    C3       C        0.92540    0.28231    0.11290    1.000
    H1       H        0.92310    0.24860    0.06360    1.000
    C4       C        0.00050    0.30527    0.14660    1.000
    C5       C        0.00280    0.35460    0.21890    1.000
    H2       H        0.05470    0.36990    0.24230    1.000
    C6       C        0.93150    0.38220    0.25770    1.000
    C7       C        0.85660    0.35770    0.22370    1.000
    H3       H        0.80690    0.37500    0.25060    1.000
    C8       C        0.07800    0.27680    0.10700    1.000
    C9       C        0.93470    0.43660    0.33670    1.000
    C10      C        0.94530    0.40750    0.44070    1.000
    H4       H        0.94760    0.44110    0.49350    1.000
    H5       H        0.99660    0.38290    0.44220    1.000
    H6       H        0.89870    0.37920    0.45530    1.000
    C11      C        0.85830    0.47490    0.34060    1.000
    H7       H        0.84990    0.49610    0.27340    1.000
    H8       H        0.86300    0.50710    0.39560    1.000
    H9       H        0.81130    0.44700    0.35530    1.000
    C12      C        0.00570    0.47880    0.31800    1.000
    H10      H        0.99990    0.49920    0.24970    1.000
    H11      H        0.05670    0.45370    0.31950    1.000
    H12      H        0.00780    0.51160    0.37220    1.000
    C13      C        0.22020    0.11644    0.12140    1.000
    C14      C        0.23800    0.05592    0.17910    1.000
    C15      C        0.23830    0.05590    0.28660    1.000
    H13      H        0.23030    0.09480    0.32290    1.000
    C16      C        0.22830    0.05450    0.50910    1.000
    H14      H        0.23050    0.04960    0.58490    1.000
    H15      H        0.17220    0.06590    0.48800    1.000
    H16      H        0.26640    0.08830    0.48770    1.000
    O1       O        0.70650    0.30049    0.15870    1.000
    O2       O        0.77364    0.24084    0.04620    1.000
    O3       O        0.07199    0.24025    0.02790    1.000
    O4       O        0.14430    0.28889    0.15110    1.000
    O5       O        0.19430    0.11226    0.03020    1.000
    O6       O        0.23140    0.16818    0.16420    1.000
    Co2      Co       0.83077    0.80314    0.02582    1.000
    C17      C        0.72840    0.71740    0.11860    1.000
    C18      C        0.64710    0.69119    0.15160    1.000
    C19      C        0.57460    0.71769    0.11290    1.000
    H17      H        0.57690    0.75140    0.06360    1.000
    C20      C        0.49950    0.69473    0.14660    1.000
    C21      C        0.49720    0.64540    0.21890    1.000
    H18      H        0.44530    0.63010    0.24230    1.000
    C22      C        0.56850    0.61780    0.25770    1.000
    C23      C        0.64340    0.64230    0.22370    1.000
    H19      H        0.69310    0.62500    0.25060    1.000
    C24      C        0.42200    0.72320    0.10700    1.000
    C25      C        0.56530    0.56340    0.33670    1.000
    C26      C        0.55470    0.59250    0.44070    1.000
    H20      H        0.55240    0.55890    0.49350    1.000
    H21      H        0.50340    0.61710    0.44220    1.000
    H22      H        0.60130    0.62080    0.45530    1.000
    C27      C        0.64170    0.52510    0.34060    1.000
    H23      H        0.65010    0.50390    0.27340    1.000
    H24      H        0.63700    0.49290    0.39560    1.000
    H25      H        0.68870    0.55300    0.35530    1.000
    C28      C        0.49430    0.52120    0.31800    1.000
    H26      H        0.50010    0.50080    0.24970    1.000
    H27      H        0.44330    0.54630    0.31950    1.000
    H28      H        0.49220    0.48840    0.37220    1.000
    C29      C        0.27980    0.88356    0.12140    1.000
    C30      C        0.26200    0.94408    0.17910    1.000
    C31      C        0.26170    0.94410    0.28660    1.000
    H29      H        0.26970    0.90520    0.32290    1.000
    C32      C        0.27170    0.94550    0.50910    1.000
    H30      H        0.26950    0.95040    0.58490    1.000
    H31      H        0.32780    0.93410    0.48800    1.000
    H32      H        0.23360    0.91170    0.48770    1.000
    O7       O        0.79350    0.69951    0.15870    1.000
    O8       O        0.72636    0.75916    0.04620    1.000
    O9       O        0.42801    0.75975    0.02790    1.000
    O10      O        0.35570    0.71111    0.15110    1.000
    O11      O        0.30570    0.88774    0.03020    1.000
    O12      O        0.26860    0.83182    0.16420    1.000
    Co3      Co       0.83077    0.69686    0.47418    1.000
    C33      C        0.72840    0.78260    0.38140    1.000
    C34      C        0.64710    0.80881    0.34840    1.000
    C35      C        0.57460    0.78231    0.38710    1.000
    H33      H        0.57690    0.74860    0.43640    1.000
    C36      C        0.49950    0.80527    0.35340    1.000
    C37      C        0.49720    0.85460    0.28110    1.000
    H34      H        0.44530    0.86990    0.25770    1.000
    C38      C        0.56850    0.88220    0.24230    1.000
    C39      C        0.64340    0.85770    0.27630    1.000
    H35      H        0.69310    0.87500    0.24940    1.000
    C40      C        0.42200    0.77680    0.39300    1.000
    C41      C        0.56530    0.93660    0.16330    1.000
    C42      C        0.55470    0.90750    0.05930    1.000
    H36      H        0.55240    0.94110    0.00650    1.000
    H37      H        0.50340    0.88290    0.05780    1.000
    H38      H        0.60130    0.87920    0.04470    1.000
    C43      C        0.64170    0.97490    0.15940    1.000
    H39      H        0.65010    0.99610    0.22660    1.000
    H40      H        0.63700    0.00710    0.10440    1.000
    H41      H        0.68870    0.94700    0.14470    1.000
    C44      C        0.49430    0.97880    0.18200    1.000
    H42      H        0.50010    0.99920    0.25030    1.000
    H43      H        0.44330    0.95370    0.18050    1.000
    H44      H        0.49220    0.01160    0.12780    1.000
    C45      C        0.27980    0.61644    0.37860    1.000
    C46      C        0.26200    0.55592    0.32090    1.000
    C47      C        0.26170    0.55590    0.21340    1.000
    H45      H        0.26970    0.59480    0.17710    1.000
    C48      C        0.27170    0.55450    0.99090    1.000
    H46      H        0.26950    0.54960    0.91510    1.000
    H47      H        0.32780    0.56590    0.01200    1.000
    H48      H        0.23360    0.58830    0.01230    1.000
    O13      O        0.79350    0.80049    0.34130    1.000
    O14      O        0.72636    0.74084    0.45380    1.000
    O15      O        0.42801    0.74025    0.47210    1.000
    O16      O        0.35570    0.78889    0.34890    1.000
    O17      O        0.30570    0.61226    0.46980    1.000
    O18      O        0.26860    0.66818    0.33580    1.000
    Co4      Co       0.66923    0.30314    0.47418    1.000
    C49      C        0.77160    0.21740    0.38140    1.000
    C50      C        0.85290    0.19119    0.34840    1.000
    C51      C        0.92540    0.21769    0.38710    1.000
    H49      H        0.92310    0.25140    0.43640    1.000
    C52      C        0.00050    0.19473    0.35340    1.000
    C53      C        0.00280    0.14540    0.28110    1.000
    H50      H        0.05470    0.13010    0.25770    1.000
    C54      C        0.93150    0.11780    0.24230    1.000
    C55      C        0.85660    0.14230    0.27630    1.000
    H51      H        0.80690    0.12500    0.24940    1.000
    C56      C        0.07800    0.22320    0.39300    1.000
    C57      C        0.93470    0.06340    0.16330    1.000
    C58      C        0.94530    0.09250    0.05930    1.000
    H52      H        0.94760    0.05890    0.00650    1.000
    H53      H        0.99660    0.11710    0.05780    1.000
    H54      H        0.89870    0.12080    0.04470    1.000
    C59      C        0.85830    0.02510    0.15940    1.000
    H55      H        0.84990    0.00390    0.22660    1.000
    H56      H        0.86300    0.99290    0.10440    1.000
    H57      H        0.81130    0.05300    0.14470    1.000
    C60      C        0.00570    0.02120    0.18200    1.000
    H58      H        0.99990    0.00080    0.25030    1.000
    H59      H        0.05670    0.04630    0.18050    1.000
    H60      H        0.00780    0.98840    0.12780    1.000
    C61      C        0.22020    0.38356    0.37860    1.000
    C62      C        0.23800    0.44408    0.32090    1.000
    C63      C        0.23830    0.44410    0.21340    1.000
    H61      H        0.23030    0.40520    0.17710    1.000
    C64      C        0.22830    0.44550    0.99090    1.000
    H62      H        0.23050    0.45040    0.91510    1.000
    H63      H        0.17220    0.43410    0.01200    1.000
    H64      H        0.26640    0.41170    0.01230    1.000
    O19      O        0.70650    0.19951    0.34130    1.000
    O20      O        0.77364    0.25916    0.45380    1.000
    O21      O        0.07199    0.25975    0.47210    1.000
    O22      O        0.14430    0.21111    0.34890    1.000
    O23      O        0.19430    0.38774    0.46980    1.000
    O24      O        0.23140    0.33182    0.33580    1.000
    Co5      Co       0.33077    0.80314    0.97418    1.000
    C65      C        0.22840    0.71740    0.88140    1.000
    C66      C        0.14710    0.69119    0.84840    1.000
    C67      C        0.07460    0.71769    0.88710    1.000
    H65      H        0.07690    0.75140    0.93640    1.000
    C68      C        0.99950    0.69473    0.85340    1.000
    C69      C        0.99720    0.64540    0.78110    1.000
    H66      H        0.94530    0.63010    0.75770    1.000
    C70      C        0.06850    0.61780    0.74230    1.000
    C71      C        0.14340    0.64230    0.77630    1.000
    H67      H        0.19310    0.62500    0.74940    1.000
    C72      C        0.92200    0.72320    0.89300    1.000
    C73      C        0.06530    0.56340    0.66330    1.000
    C74      C        0.05470    0.59250    0.55930    1.000
    H68      H        0.05240    0.55890    0.50650    1.000
    H69      H        0.00340    0.61710    0.55780    1.000
    H70      H        0.10130    0.62080    0.54470    1.000
    C75      C        0.14170    0.52510    0.65940    1.000
    H71      H        0.15010    0.50390    0.72660    1.000
    H72      H        0.13700    0.49290    0.60440    1.000
    H73      H        0.18870    0.55300    0.64470    1.000
    C76      C        0.99430    0.52120    0.68200    1.000
    H74      H        0.00010    0.50080    0.75030    1.000
    H75      H        0.94330    0.54630    0.68050    1.000
    H76      H        0.99220    0.48840    0.62780    1.000
    C77      C        0.77980    0.88356    0.87860    1.000
    C78      C        0.76200    0.94408    0.82090    1.000
    C79      C        0.76170    0.94410    0.71340    1.000
    H77      H        0.76970    0.90520    0.67710    1.000
    C80      C        0.77170    0.94550    0.49090    1.000
    H78      H        0.76950    0.95040    0.41510    1.000
    H79      H        0.82780    0.93410    0.51200    1.000
    H80      H        0.73360    0.91170    0.51230    1.000
    O25      O        0.29350    0.69951    0.84130    1.000
    O26      O        0.22636    0.75916    0.95380    1.000
    O27      O        0.92801    0.75975    0.97210    1.000
    O28      O        0.85570    0.71111    0.84890    1.000
    O29      O        0.80570    0.88774    0.96980    1.000
    O30      O        0.76860    0.83182    0.83580    1.000
    Co6      Co       0.16923    0.19686    0.97418    1.000
    C81      C        0.27160    0.28260    0.88140    1.000
    C82      C        0.35290    0.30881    0.84840    1.000
    C83      C        0.42540    0.28231    0.88710    1.000
    H81      H        0.42310    0.24860    0.93640    1.000
    C84      C        0.50050    0.30527    0.85340    1.000
    C85      C        0.50280    0.35460    0.78110    1.000
    H82      H        0.55470    0.36990    0.75770    1.000
    C86      C        0.43150    0.38220    0.74230    1.000
    C87      C        0.35660    0.35770    0.77630    1.000
    H83      H        0.30690    0.37500    0.74940    1.000
    C88      C        0.57800    0.27680    0.89300    1.000
    C89      C        0.43470    0.43660    0.66330    1.000
    C90      C        0.44530    0.40750    0.55930    1.000
    H84      H        0.44760    0.44110    0.50650    1.000
    H85      H        0.49660    0.38290    0.55780    1.000
    H86      H        0.39870    0.37920    0.54470    1.000
    C91      C        0.35830    0.47490    0.65940    1.000
    H87      H        0.34990    0.49610    0.72660    1.000
    H88      H        0.36300    0.50710    0.60440    1.000
    H89      H        0.31130    0.44700    0.64470    1.000
    C92      C        0.50570    0.47880    0.68200    1.000
    H90      H        0.49990    0.49920    0.75030    1.000
    H91      H        0.55670    0.45370    0.68050    1.000
    H92      H        0.50780    0.51160    0.62780    1.000
    C93      C        0.72020    0.11644    0.87860    1.000
    C94      C        0.73800    0.05592    0.82090    1.000
    C95      C        0.73830    0.05590    0.71340    1.000
    H93      H        0.73030    0.09480    0.67710    1.000
    C96      C        0.72830    0.05450    0.49090    1.000
    H94      H        0.73050    0.04960    0.41510    1.000
    H95      H        0.67220    0.06590    0.51200    1.000
    H96      H        0.76640    0.08830    0.51230    1.000
    O31      O        0.20650    0.30049    0.84130    1.000
    O32      O        0.27364    0.24084    0.95380    1.000
    O33      O        0.57199    0.24025    0.97210    1.000
    O34      O        0.64430    0.28889    0.84890    1.000
    O35      O        0.69430    0.11226    0.96980    1.000
    O36      O        0.73140    0.16818    0.83580    1.000
    Co7      Co       0.16923    0.30314    0.52582    1.000
    C97      C        0.27160    0.21740    0.61860    1.000
    C98      C        0.35290    0.19119    0.65160    1.000
    C99      C        0.42540    0.21769    0.61290    1.000
    H97      H        0.42310    0.25140    0.56360    1.000
    C100     C        0.50050    0.19473    0.64660    1.000
    C101     C        0.50280    0.14540    0.71890    1.000
    H98      H        0.55470    0.13010    0.74230    1.000
    C102     C        0.43150    0.11780    0.75770    1.000
    C103     C        0.35660    0.14230    0.72370    1.000
    H99      H        0.30690    0.12500    0.75060    1.000
    C104     C        0.57800    0.22320    0.60700    1.000
    C105     C        0.43470    0.06340    0.83670    1.000
    C106     C        0.44530    0.09250    0.94070    1.000
    H100     H        0.44760    0.05890    0.99350    1.000
    H101     H        0.49660    0.11710    0.94220    1.000
    H102     H        0.39870    0.12080    0.95530    1.000
    C107     C        0.35830    0.02510    0.84060    1.000
    H103     H        0.34990    0.00390    0.77340    1.000
    H104     H        0.36300    0.99290    0.89560    1.000
    H105     H        0.31130    0.05300    0.85530    1.000
    C108     C        0.50570    0.02120    0.81800    1.000
    H106     H        0.49990    0.00080    0.74970    1.000
    H107     H        0.55670    0.04630    0.81950    1.000
    H108     H        0.50780    0.98840    0.87220    1.000
    C109     C        0.72020    0.38356    0.62140    1.000
    C110     C        0.73800    0.44408    0.67910    1.000
    C111     C        0.73830    0.44410    0.78660    1.000
    H109     H        0.73030    0.40520    0.82290    1.000
    C112     C        0.72830    0.44550    0.00910    1.000
    H110     H        0.73050    0.45040    0.08490    1.000
    H111     H        0.67220    0.43410    0.98800    1.000
    H112     H        0.76640    0.41170    0.98770    1.000
    O37      O        0.20650    0.19951    0.65870    1.000
    O38      O        0.27364    0.25916    0.54620    1.000
    O39      O        0.57199    0.25975    0.52790    1.000
    O40      O        0.64430    0.21111    0.65110    1.000
    O41      O        0.69430    0.38774    0.53020    1.000
    O42      O        0.73140    0.33182    0.66420    1.000
    Co8      Co       0.33077    0.69686    0.52582    1.000
    C113     C        0.22840    0.78260    0.61860    1.000
    C114     C        0.14710    0.80881    0.65160    1.000
    C115     C        0.07460    0.78231    0.61290    1.000
    H113     H        0.07690    0.74860    0.56360    1.000
    C116     C        0.99950    0.80527    0.64660    1.000
    C117     C        0.99720    0.85460    0.71890    1.000
    H114     H        0.94530    0.86990    0.74230    1.000
    C118     C        0.06850    0.88220    0.75770    1.000
    C119     C        0.14340    0.85770    0.72370    1.000
    H115     H        0.19310    0.87500    0.75060    1.000
    C120     C        0.92200    0.77680    0.60700    1.000
    C121     C        0.06530    0.93660    0.83670    1.000
    C122     C        0.05470    0.90750    0.94070    1.000
    H116     H        0.05240    0.94110    0.99350    1.000
    H117     H        0.00340    0.88290    0.94220    1.000
    H118     H        0.10130    0.87920    0.95530    1.000
    C123     C        0.14170    0.97490    0.84060    1.000
    H119     H        0.15010    0.99610    0.77340    1.000
    H120     H        0.13700    0.00710    0.89560    1.000
    H121     H        0.18870    0.94700    0.85530    1.000
    C124     C        0.99430    0.97880    0.81800    1.000
    H122     H        0.00010    0.99920    0.74970    1.000
    H123     H        0.94330    0.95370    0.81950    1.000
    H124     H        0.99220    0.01160    0.87220    1.000
    C125     C        0.77980    0.61644    0.62140    1.000
    C126     C        0.76200    0.55592    0.67910    1.000
    C127     C        0.76170    0.55590    0.78660    1.000
    H125     H        0.76970    0.59480    0.82290    1.000
    C128     C        0.77170    0.55450    0.00910    1.000
    H126     H        0.76950    0.54960    0.08490    1.000
    H127     H        0.82780    0.56590    0.98800    1.000
    H128     H        0.73360    0.58830    0.98770    1.000
    O43      O        0.29350    0.80049    0.65870    1.000
    O44      O        0.22636    0.74084    0.54620    1.000
    O45      O        0.92801    0.74025    0.52790    1.000
    O46      O        0.85570    0.78889    0.65110    1.000
    O47      O        0.80570    0.61226    0.53020    1.000
    O48      O        0.76860    0.66818    0.66420    1.000
    Co9      Co       0.23291    0.25000    0.25000    1.000
    Co10     Co       0.26709    0.75000    0.25000    1.000
    Co11     Co       0.76709    0.75000    0.75000    1.000
    Co12     Co       0.73291    0.25000    0.75000    1.000
    C129     C        0.25000    0.00000    0.34270    1.000
    C130     C        0.25000    0.00000    0.46390    1.000
    C131     C        0.25000    0.00000    0.12530    1.000
    H129     H        0.25000    0.00000    0.05130    1.000
    C132     C        0.25000    0.50000    0.15730    1.000
    C133     C        0.25000    0.50000    0.03610    1.000
    C134     C        0.25000    0.50000    0.37470    1.000
    H130     H        0.25000    0.50000    0.44870    1.000
    C135     C        0.75000    0.00000    0.65730    1.000
    C136     C        0.75000    0.00000    0.53610    1.000
    C137     C        0.75000    0.00000    0.87470    1.000
    H131     H        0.75000    0.00000    0.94870    1.000
    C138     C        0.75000    0.50000    0.84270    1.000
    C139     C        0.75000    0.50000    0.96390    1.000
    C140     C        0.75000    0.50000    0.62530    1.000
    H132     H        0.75000    0.50000    0.55130    1.000
