# CIF file generated by openbabel 3.1.0, see https://openbabel.org
data_I
_chemical_name_common 'image0'
_cell_length_a 10.8352
_cell_length_b 6.3246
_cell_length_c 16.8834
_cell_angle_alpha 90
_cell_angle_beta 105.667
_cell_angle_gamma 90
_space_group_name_H-M_alt 'P 1'
_space_group_name_Hall 'P 1'
loop_
    _symmetry_equiv_pos_as_xyz
    x,y,z
loop_
    _atom_site_label
    _atom_site_type_symbol
    _atom_site_fract_x
    _atom_site_fract_y
    _atom_site_fract_z
    _atom_site_occupancy
    Ni1      Ni       0.53502    0.00363    0.91739    1.000
    C1       C        0.66510    0.18590    0.66250    1.000
    C2       C        0.77260    0.11660    0.73420    1.000
    C3       C        0.83040    0.92110    0.73700    1.000
    H1       H        0.80110    0.82610    0.69400    1.000
    C4       C        0.93100    0.86540    0.80300    1.000
    H2       H        0.96900    0.73330    0.80360    1.000
    C5       C        0.97650    0.00150    0.86820    1.000
    H3       H        0.04550    0.96240    0.91190    1.000
    C6       C        0.91990    0.19350    0.86810    1.000
    C7       C        0.81880    0.25420    0.80040    1.000
    H4       H        0.78220    0.38740    0.79960    1.000
    C8       C        0.08460    0.42930    0.95970    1.000
    H5       H        0.14360    0.37930    0.93310    1.000
    C9       C        0.96160    0.34450    0.93830    1.000
    C10      C        0.87720    0.41620    0.98150    1.000
    C11      C        0.73980    0.32710    0.96620    1.000
    O1       O        0.60930    0.03390    0.61820    1.000
    O2       O        0.63720    0.37730    0.65080    1.000
    O3       O        0.72090    0.13560    0.96660    1.000
    O4       O        0.65730    0.47010    0.95590    1.000
    O5       O        0.44740    0.18990    0.98370    1.000
    H6       H        0.36830    0.19000    0.95840    1.000
    Ni2      Ni       0.46498    0.50363    0.58261    1.000
    C12      C        0.33490    0.68590    0.83750    1.000
    C13      C        0.22740    0.61660    0.76580    1.000
    C14      C        0.16960    0.42110    0.76300    1.000
    H7       H        0.19890    0.32610    0.80600    1.000
    C15      C        0.06900    0.36540    0.69700    1.000
    H8       H        0.03100    0.23330    0.69640    1.000
    C16      C        0.02350    0.50150    0.63180    1.000
    H9       H        0.95450    0.46240    0.58810    1.000
    C17      C        0.08010    0.69350    0.63190    1.000
    C18      C        0.18120    0.75420    0.69960    1.000
    H10      H        0.21780    0.88740    0.70040    1.000
    C19      C        0.91540    0.92930    0.54030    1.000
    H11      H        0.85640    0.87930    0.56690    1.000
    C20      C        0.03840    0.84450    0.56170    1.000
    C21      C        0.12280    0.91620    0.51850    1.000
    C22      C        0.26020    0.82710    0.53380    1.000
    O6       O        0.39070    0.53390    0.88180    1.000
    O7       O        0.36280    0.87730    0.84920    1.000
    O8       O        0.27910    0.63560    0.53340    1.000
    O9       O        0.34270    0.97010    0.54410    1.000
    O10      O        0.55260    0.68990    0.51630    1.000
    H12      H        0.63170    0.69000    0.54160    1.000
    Ni3      Ni       0.46498    0.99637    0.08261    1.000
    C23      C        0.33490    0.81410    0.33750    1.000
    C24      C        0.22740    0.88340    0.26580    1.000
    C25      C        0.16960    0.07890    0.26300    1.000
    H13      H        0.19890    0.17390    0.30600    1.000
    C26      C        0.06900    0.13460    0.19700    1.000
    H14      H        0.03100    0.26670    0.19640    1.000
    C27      C        0.02350    0.99850    0.13180    1.000
    H15      H        0.95450    0.03760    0.08810    1.000
    C28      C        0.08010    0.80650    0.13190    1.000
    C29      C        0.18120    0.74580    0.19960    1.000
    H16      H        0.21780    0.61260    0.20040    1.000
    C30      C        0.91540    0.57070    0.04030    1.000
    H17      H        0.85640    0.62070    0.06690    1.000
    C31      C        0.03840    0.65550    0.06170    1.000
    C32      C        0.12280    0.58380    0.01850    1.000
    C33      C        0.26020    0.67290    0.03380    1.000
    O11      O        0.39070    0.96610    0.38180    1.000
    O12      O        0.36280    0.62270    0.34920    1.000
    O13      O        0.27910    0.86440    0.03340    1.000
    O14      O        0.34270    0.52990    0.04410    1.000
    O15      O        0.55260    0.81010    0.01630    1.000
    H18      H        0.63170    0.81000    0.04160    1.000
    Ni4      Ni       0.53502    0.49637    0.41739    1.000
    C34      C        0.66510    0.31410    0.16250    1.000
    C35      C        0.77260    0.38340    0.23420    1.000
    C36      C        0.83040    0.57890    0.23700    1.000
    H19      H        0.80110    0.67390    0.19400    1.000
    C37      C        0.93100    0.63460    0.30300    1.000
    H20      H        0.96900    0.76670    0.30360    1.000
    C38      C        0.97650    0.49850    0.36820    1.000
    H21      H        0.04550    0.53760    0.41190    1.000
    C39      C        0.91990    0.30650    0.36810    1.000
    C40      C        0.81880    0.24580    0.30040    1.000
    H22      H        0.78220    0.11260    0.29960    1.000
    C41      C        0.08460    0.07070    0.45970    1.000
    H23      H        0.14360    0.12070    0.43310    1.000
    C42      C        0.96160    0.15550    0.43830    1.000
    C43      C        0.87720    0.08380    0.48150    1.000
    C44      C        0.73980    0.17290    0.46620    1.000
    O16      O        0.60930    0.46610    0.11820    1.000
    O17      O        0.63720    0.12270    0.15080    1.000
    O18      O        0.72090    0.36440    0.46660    1.000
    O19      O        0.65730    0.02990    0.45590    1.000
    O20      O        0.44740    0.31010    0.48370    1.000
    H24      H        0.36830    0.31000    0.45840    1.000
    Ni5      Ni       0.50000    0.50000    0.00000    1.000
    Ni6      Ni       0.50000    0.00000    0.50000    1.000
