data_functionalizedCrystal
_audit_creation_method	'EQeq! by Chris Wilmer'
_symmetry_space_group_name_H-M	'P1'
_symmetry_Int_Tables_number	1
_symmetry_cell_setting	triclinic
loop_
_symmetry_equiv_pos_as_xyz
  x,y,z
_cell_length_a	10.409
_cell_length_b	11.154
_cell_length_c	22.258
_cell_angle_alpha	90
_cell_angle_beta	90
_cell_angle_gamma	90
loop_
_atom_site_label
_atom_site_type_symbol
_atom_site_fract_x
_atom_site_fract_y
_atom_site_fract_z
_atom_site_charge
Mof_Ag	Ag	0.15397	0.80858	0.30292	0.588
Mof_Ag	Ag	0.65397	0.19142	0.69708	0.626
Mof_Ag	Ag	0.15397	0.69142	0.80292	0.587
Mof_Ag	Ag	0.65397	0.30858	0.19708	0.625
Mof_H 	H 	0.3385	0.5032	0.3087	0.175
Mof_H 	H 	0.1891	0.4521	0.1415	0.174
Mof_H 	H 	0.5561	0.5681	0.1592	0.176
Mof_H 	H 	0.6601	0.69	0.2293	0.033
Mof_H 	H 	0.7127	0.5547	0.2275	0.003
Mof_H 	H 	0.9053	0.7077	0.2487	0.032
Mof_H 	H 	0.6614	0.5864	0.3759	0.044
Mof_H 	H 	0.8082	0.6514	0.4488	0.099
Mof_H 	H 	0.0012	0.7332	0.4193	-0.042
Mof_H 	H 	0.1185	0.5107	0.3304	0.022
Mof_H 	H 	0.1713	0.3754	0.3339	0.053
Mof_H 	H 	0.921	0.3936	0.2353	0.051
Mof_H 	H 	0.9837	0.3613	0.4115	0.071
Mof_H 	H 	0.7739	0.2897	0.4236	0.061
Mof_H 	H 	0.6429	0.2751	0.339	0.033
Mof_H 	H 	0.217	0.559	0.0596	0.029
Mof_H 	H 	0.2692	0.438	0.0289	0.044
Mof_H 	H 	0.174	0.5634	0.9374	0.025
Mof_H 	H 	0.5118	0.6419	0.0159	0.06
Mof_H 	H 	0.5673	0.7481	0.9298	0.062
Mof_H 	H 	0.4226	0.7628	0.8513	0.013
Mof_H 	H 	0.8385	0.4968	0.6913	0.18
Mof_H 	H 	0.6891	0.5479	0.8585	0.176
Mof_H 	H 	0.0561	0.4319	0.8408	0.134
Mof_H 	H 	0.1601	0.31	0.7707	0.026
Mof_H 	H 	0.2127	0.4453	0.7725	0
Mof_H 	H 	0.4053	0.2923	0.7513	0.027
Mof_H 	H 	0.1614	0.4136	0.6241	0.046
Mof_H 	H 	0.3082	0.3486	0.5512	0.077
Mof_H 	H 	0.5012	0.2668	0.5807	0.013
Mof_H 	H 	0.6185	0.4893	0.6696	0.017
Mof_H 	H 	0.6713	0.6246	0.6661	0.043
Mof_H 	H 	0.421	0.6064	0.7647	0.036
Mof_H 	H 	0.4837	0.6387	0.5885	0.049
Mof_H 	H 	0.2739	0.7103	0.5764	0.064
Mof_H 	H 	0.1429	0.7249	0.661	0.019
Mof_H 	H 	0.717	0.441	0.9404	0.036
Mof_H 	H 	0.7692	0.562	0.9711	0.049
Mof_H 	H 	0.674	0.4366	0.0626	0.029
Mof_H 	H 	0.0118	0.3581	0.9841	0.029
Mof_H 	H 	0.0673	0.2519	0.0702	0.023
Mof_H 	H 	0.9226	0.2372	0.1487	0.029
Mof_H 	H 	0.3385	0.9968	0.8087	0.176
Mof_H 	H 	0.1891	0.0479	0.6415	0.174
Mof_H 	H 	0.5561	0.9319	0.6592	0.176
Mof_H 	H 	0.6601	0.81	0.7293	0.033
Mof_H 	H 	0.7127	0.9453	0.7275	0.003
Mof_H 	H 	0.9053	0.7923	0.7487	0.032
Mof_H 	H 	0.6614	0.9136	0.8759	0.044
Mof_H 	H 	0.8082	0.8486	0.9488	0.099
Mof_H 	H 	0.0012	0.7668	0.9193	-0.041
Mof_H 	H 	0.1185	0.9893	0.8304	0.019
Mof_H 	H 	0.1713	0.1246	0.8339	0.052
Mof_H 	H 	0.921	0.1064	0.7353	0.05
Mof_H 	H 	0.9837	0.1387	0.9115	0.07
Mof_H 	H 	0.7739	0.2103	0.9236	0.062
Mof_H 	H 	0.6429	0.2249	0.839	0.032
Mof_H 	H 	0.217	0.941	0.5596	0.029
Mof_H 	H 	0.2692	0.062	0.5289	0.046
Mof_H 	H 	0.174	0.9366	0.4374	0.024
Mof_H 	H 	0.5118	0.8581	0.5159	0.063
Mof_H 	H 	0.5673	0.7519	0.4298	0.061
Mof_H 	H 	0.4226	0.7372	0.3513	0.014
Mof_H 	H 	0.8385	0.0032	0.1913	0.18
Mof_H 	H 	0.6891	0.9521	0.3585	0.176
Mof_H 	H 	0.0561	0.0681	0.3408	0.136
Mof_H 	H 	0.1601	0.19	0.2707	0.026
Mof_H 	H 	0.2127	0.0547	0.2725	0.001
Mof_H 	H 	0.4053	0.2077	0.2513	0.027
Mof_H 	H 	0.1614	0.0864	0.1241	0.047
Mof_H 	H 	0.3082	0.1514	0.0512	0.077
Mof_H 	H 	0.5012	0.2332	0.0807	0.012
Mof_H 	H 	0.6185	0.0107	0.1696	0.016
Mof_H 	H 	0.6713	0.8754	0.1661	0.043
Mof_H 	H 	0.421	0.8936	0.2647	0.036
Mof_H 	H 	0.4837	0.8613	0.0885	0.048
Mof_H 	H 	0.2739	0.7897	0.0764	0.063
Mof_H 	H 	0.1429	0.7751	0.161	0.019
Mof_H 	H 	0.717	0.059	0.4404	0.037
Mof_H 	H 	0.7692	0.938	0.4711	0.05
Mof_H 	H 	0.674	0.0634	0.5626	0.03
Mof_H 	H 	0.0118	0.1419	0.4841	0.028
Mof_H 	H 	0.0673	0.2481	0.5702	0.023
Mof_H 	H 	0.9226	0.2628	0.6487	0.029
Mof_C 	C 	0.4644	0.5419	0.2391	0.349
Mof_C 	C 	0.3474	0.5047	0.2662	-0.399
Mof_C 	C 	0.2489	0.4713	0.2301	0.357
Mof_C 	C 	0.2587	0.4751	0.1666	-0.385
Mof_C 	C 	0.3744	0.5138	0.1428	0.364
Mof_C 	C 	0.4772	0.5448	0.17723	-0.42
Mof_C 	C 	0.6754	0.6172	0.2538	0.06
Mof_C 	C 	0.8849	0.6956	0.28983	0.032
Mof_C 	C 	0.7665	0.6454	0.3043	-0.023
Mof_C 	C 	0.7392	0.6247	0.3644	0.018
Mof_C 	C 	0.8269	0.6608	0.4073	-0.142
Mof_C 	C 	0.9409	0.7102	0.3894	0.147
Mof_C 	C 	0.1095	0.429	0.31347	-0.03
Mof_C 	C 	0.8912	0.3718	0.2742	0
Mof_C 	C 	0.9748	0.3841	0.3218	0.058
Mof_C 	C 	0.9292	0.3535	0.3775	-0.061
Mof_C 	C 	0.8053	0.3115	0.3851	-0.046
Mof_C 	C 	0.7287	0.3026	0.3344	0.039
Mof_C 	C 	0.2927	0.5207	0.04064	0.029
Mof_C 	C 	0.255	0.6025	0.9365	0.027
Mof_C 	C 	0.3342	0.5906	0.98693	0.006
Mof_C 	C 	0.4532	0.647	0.9833	-0.017
Mof_C 	C 	0.4859	0.7101	0.9326	-0.078
Mof_C 	C 	0.3995	0.7178	0.8859	0.049
Mof_C 	C 	0.9644	0.4581	0.7609	0.363
Mof_C 	C 	0.8474	0.4953	0.7338	-0.399
Mof_C 	C 	0.7489	0.5287	0.7699	0.356
Mof_C 	C 	0.7587	0.5249	0.8334	-0.372
Mof_C 	C 	0.8744	0.4862	0.8572	0.341
Mof_C 	C 	0.9772	0.4552	0.82277	-0.354
Mof_C 	C 	0.1754	0.3828	0.7462	0.063
Mof_C 	C 	0.3849	0.3044	0.71017	0.025
Mof_C 	C 	0.2665	0.3546	0.6957	-0.016
Mof_C 	C 	0.2392	0.3753	0.6356	-0.007
Mof_C 	C 	0.3269	0.3392	0.5927	-0.096
Mof_C 	C 	0.4409	0.2898	0.6106	0.064
Mof_C 	C 	0.6095	0.571	0.68653	0.025
Mof_C 	C 	0.3912	0.6282	0.7258	0.023
Mof_C 	C 	0.4748	0.6159	0.6782	0.001
Mof_C 	C 	0.4292	0.6465	0.6225	-0.028
Mof_C 	C 	0.3053	0.6885	0.6149	-0.071
Mof_C 	C 	0.2287	0.6974	0.6656	0.05
Mof_C 	C 	0.7927	0.4793	0.95936	0.03
Mof_C 	C 	0.755	0.3975	0.0635	0.029
Mof_C 	C 	0.8342	0.4094	0.01307	-0.001
Mof_C 	C 	0.9532	0.353	0.0167	0.01
Mof_C 	C 	0.9859	0.2899	0.0674	-0.022
Mof_C 	C 	0.8995	0.2822	0.1141	0.027
Mof_C 	C 	0.4644	0.9581	0.7391	0.349
Mof_C 	C 	0.3474	0.9953	0.7662	-0.401
Mof_C 	C 	0.2489	0.0287	0.7301	0.359
Mof_C 	C 	0.2587	0.0249	0.6666	-0.384
Mof_C 	C 	0.3744	0.9862	0.6428	0.363
Mof_C 	C 	0.4772	0.9552	0.67723	-0.42
Mof_C 	C 	0.6754	0.8828	0.7538	0.06
Mof_C 	C 	0.8849	0.8044	0.78983	0.032
Mof_C 	C 	0.7665	0.8546	0.8043	-0.023
Mof_C 	C 	0.7392	0.8753	0.8644	0.018
Mof_C 	C 	0.8269	0.8392	0.9073	-0.141
Mof_C 	C 	0.9409	0.7898	0.8894	0.146
Mof_C 	C 	0.1095	0.071	0.81347	-0.022
Mof_C 	C 	0.8912	0.1282	0.7742	0.002
Mof_C 	C 	0.9748	0.1159	0.8218	0.054
Mof_C 	C 	0.9292	0.1465	0.8775	-0.058
Mof_C 	C 	0.8053	0.1885	0.8851	-0.048
Mof_C 	C 	0.7287	0.1974	0.8344	0.04
Mof_C 	C 	0.2927	0.9793	0.54064	0.028
Mof_C 	C 	0.255	0.8975	0.4365	0.027
Mof_C 	C 	0.3342	0.9094	0.48693	0.006
Mof_C 	C 	0.4532	0.853	0.4833	-0.023
Mof_C 	C 	0.4859	0.7899	0.4326	-0.075
Mof_C 	C 	0.3995	0.7822	0.3859	0.048
Mof_C 	C 	0.9644	0.0419	0.2609	0.362
Mof_C 	C 	0.8474	0.0047	0.2338	-0.4
Mof_C 	C 	0.7489	0.9713	0.2699	0.357
Mof_C 	C 	0.7587	0.9751	0.3334	-0.372
Mof_C 	C 	0.8744	0.0138	0.3572	0.341
Mof_C 	C 	0.9772	0.0448	0.32277	-0.357
Mof_C 	C 	0.1754	0.1172	0.2462	0.062
Mof_C 	C 	0.3849	0.1956	0.21017	0.025
Mof_C 	C 	0.2665	0.1454	0.1957	-0.015
Mof_C 	C 	0.2392	0.1247	0.1356	-0.007
Mof_C 	C 	0.3269	0.1608	0.0927	-0.095
Mof_C 	C 	0.4409	0.2102	0.1106	0.064
Mof_C 	C 	0.6095	0.929	0.18653	0.026
Mof_C 	C 	0.3912	0.8718	0.2258	0.023
Mof_C 	C 	0.4748	0.8841	0.1782	0
Mof_C 	C 	0.4292	0.8535	0.1225	-0.029
Mof_C 	C 	0.3053	0.8115	0.1149	-0.071
Mof_C 	C 	0.2287	0.8026	0.1656	0.05
Mof_C 	C 	0.7927	0.0207	0.45936	0.025
Mof_C 	C 	0.755	0.1025	0.5635	0.028
Mof_C 	C 	0.8342	0.0906	0.51307	0.002
Mof_C 	C 	0.9532	0.147	0.5167	0.011
Mof_C 	C 	0.9859	0.2101	0.5674	-0.023
Mof_C 	C 	0.8995	0.2178	0.6141	0.027
Mof_N 	N 	0.9711	0.7277	0.33129	-0.188
Mof_N 	N 	0.7703	0.331	0.27916	-0.175
Mof_N 	N 	0.2844	0.6645	0.88717	-0.173
Mof_N 	N 	0.4711	0.2723	0.66871	-0.188
Mof_N 	N 	0.2703	0.669	0.72084	-0.181
Mof_N 	N 	0.7844	0.3355	0.11283	-0.17
Mof_N 	N 	0.9711	0.7723	0.83129	-0.189
Mof_N 	N 	0.7703	0.169	0.77916	-0.175
Mof_N 	N 	0.2844	0.8355	0.38717	-0.173
Mof_N 	N 	0.4711	0.2277	0.16871	-0.188
Mof_N 	N 	0.2703	0.831	0.22084	-0.181
Mof_N 	N 	0.7844	0.1645	0.61283	-0.17
Mof_O 	O 	0.5584	0.5762	0.27848	-0.282
Mof_O 	O 	0.133	0.4305	0.24988	-0.274
Mof_O 	O 	0.3971	0.5192	0.08097	-0.265
Mof_O 	O 	0.0584	0.4238	0.72152	-0.309
Mof_O 	O 	0.633	0.5695	0.75012	-0.271
Mof_O 	O 	0.8971	0.4808	0.91903	-0.247
Mof_O 	O 	0.5584	0.9238	0.77848	-0.283
Mof_O 	O 	0.133	0.0695	0.74988	-0.275
Mof_O 	O 	0.3971	0.9808	0.58097	-0.265
Mof_O 	O 	0.0584	0.0762	0.22152	-0.307
Mof_O 	O 	0.633	0.9305	0.25012	-0.271
Mof_O 	O 	0.8971	0.0192	0.41903	-0.247
Mof_Cl	Cl	0.38726	0.2156	0.4092	-0.217
Mof_O 	O 	0.4099	0.3324	0.3887	-0.052
Mof_O 	O 	0.4145	0.1335	0.3631	-0.051
Mof_O 	O 	0.2591	0.2031	0.4289	-0.057
Mof_O 	O 	0.4698	0.1902	0.4557	-0.037
Mof_Cl	Cl	0.88726	0.7844	0.5908	-0.223
Mof_O 	O 	0.9099	0.6676	0.6113	-0.038
Mof_O 	O 	0.9145	0.8665	0.6369	-0.04
Mof_O 	O 	0.7591	0.7969	0.5711	-0.05
Mof_O 	O 	0.9698	0.8098	0.5443	-0.019
Mof_Cl	Cl	0.38726	0.2844	0.9092	-0.217
Mof_O 	O 	0.4099	0.1676	0.8887	-0.051
Mof_O 	O 	0.4145	0.3665	0.8631	-0.051
Mof_O 	O 	0.2591	0.2969	0.9289	-0.056
Mof_O 	O 	0.4698	0.3098	0.9557	-0.036
Mof_Cl	Cl	0.88726	0.7156	0.0908	-0.223
Mof_O 	O 	0.9099	0.8324	0.1113	-0.038
Mof_O 	O 	0.9145	0.6335	0.1369	-0.04
Mof_O 	O 	0.7591	0.7031	0.0711	-0.051
Mof_O 	O 	0.9698	0.6902	0.0443	-0.02
_end
