data_functionalizedCrystal
_audit_creation_method	'EQeq! by Chris Wilmer'
_symmetry_space_group_name_H-M	'P1'
_symmetry_Int_Tables_number	1
_symmetry_cell_setting	triclinic
loop_
_symmetry_equiv_pos_as_xyz
  x,y,z
_cell_length_a	12.3192
_cell_length_b	12.3654
_cell_length_c	25.1114
_cell_angle_alpha	81.897
_cell_angle_beta	85.389
_cell_angle_gamma	88.564
loop_
_atom_site_label
_atom_site_type_symbol
_atom_site_fract_x
_atom_site_fract_y
_atom_site_fract_z
_atom_site_charge
Mof_La	La	0.72324	0.09475	0.58525	1.524
Mof_La	La	0.99376	0.81801	0.8391	1.463
Mof_La	La	0.69951	0.32924	0.86288	1.5
Mof_La	La	0.21774	0.34064	0.64981	1.394
Mof_La	La	0.27676	0.90525	0.41475	1.525
Mof_La	La	0.00624	0.18199	0.1609	1.464
Mof_La	La	0.30049	0.67076	0.13712	1.5
Mof_La	La	0.78226	0.65936	0.35019	1.394
Mof_Mo	Mo	0.9359	0.89841	0.67143	1.089
Mof_Mo	Mo	0.04261	0.12866	0.59284	1.422
Mof_Mo	Mo	0.17012	0.01877	0.70703	1.064
Mof_Mo	Mo	0.76117	0.89498	0.73848	1.118
Mof_Mo	Mo	0.62066	0.14479	0.75034	1.031
Mof_Mo	Mo	0.74242	0.00648	0.85916	1.42
Mof_Mo	Mo	0.95009	0.12098	0.88913	1.422
Mof_Mo	Mo	0.17019	0.10396	0.79558	1.068
Mof_Mo	Mo	0.0265	0.35394	0.80344	1.107
Mof_Mo	Mo	0.92603	0.44255	0.72249	1.083
Mof_Mo	Mo	0.68543	0.32351	0.69199	1.079
Mof_Mo	Mo	0.91085	0.34815	0.6009	1.462
Mof_Mo	Mo	0.0641	0.10159	0.32857	1.089
Mof_Mo	Mo	0.95739	0.87134	0.40716	1.422
Mof_Mo	Mo	0.82988	0.98123	0.29297	1.064
Mof_Mo	Mo	0.23883	0.10502	0.26152	1.118
Mof_Mo	Mo	0.37934	0.85521	0.24966	1.031
Mof_Mo	Mo	0.25758	0.99352	0.14084	1.42
Mof_Mo	Mo	0.04991	0.87902	0.11087	1.422
Mof_Mo	Mo	0.82981	0.89604	0.20442	1.068
Mof_Mo	Mo	0.9735	0.64606	0.19656	1.107
Mof_Mo	Mo	0.07397	0.55745	0.27751	1.083
Mof_Mo	Mo	0.31457	0.67649	0.30801	1.079
Mof_Mo	Mo	0.08915	0.65185	0.3991	1.462
Mof_P 	P 	0.91171	0.15092	0.73534	0.569
Mof_P 	P 	0.08829	0.84908	0.26466	0.569
Mof_H 	H 	0.9896	0.3166	0.9909	-0.028
Mof_H 	H 	0.6861	0.4975	0.5128	-0.029
Mof_H 	H 	0.0104	0.6834	0.0091	-0.028
Mof_H 	H 	0.3139	0.5025	0.4872	-0.029
Mof_C 	C 	0.8382	0.4223	0.9366	0.34
Mof_C 	C 	0.9223	0.4643	0.9711	-0.105
Mof_C 	C 	0.924	0.5752	0.9769	-0.127
Mof_C 	C 	0.9947	0.3902	0.9944	-0.005
Mof_C 	C 	0.8394	0.6599	0.9529	0.354
Mof_C 	C 	0.4409	0.4033	0.5117	-0.115
Mof_C 	C 	0.6121	0.4983	0.5077	-0.016
Mof_C 	C 	0.5518	0.4009	0.5193	-0.116
Mof_C 	C 	0.6114	0.2982	0.5401	0.353
Mof_C 	C 	0.3707	0.2995	0.5213	0.326
Mof_C 	C 	0.1618	0.5777	0.0634	0.34
Mof_C 	C 	0.0777	0.5357	0.0289	-0.105
Mof_C 	C 	0.076	0.4248	0.0231	-0.127
Mof_C 	C 	0.0053	0.6098	0.0056	-0.005
Mof_C 	C 	0.1606	0.3401	0.0471	0.354
Mof_C 	C 	0.5591	0.5967	0.4883	-0.115
Mof_C 	C 	0.3879	0.5017	0.4923	-0.016
Mof_C 	C 	0.4482	0.5991	0.4807	-0.116
Mof_C 	C 	0.3886	0.7018	0.4599	0.353
Mof_C 	C 	0.6293	0.7005	0.4787	0.326
Mof_O 	O 	0.914	0.8653	0.7501	-0.722
Mof_O 	O 	0.7951	0.9685	0.6662	-0.72
Mof_O 	O 	0.0965	0.893	0.6824	-0.578
Mof_O 	O 	0.978	0.9952	0.6008	-0.709
Mof_O 	O 	0.9805	0.0842	0.6972	-0.424
Mof_O 	O 	0.1644	0.0867	0.6282	-0.662
Mof_O 	O 	0.8938	0.1928	0.5932	-0.76
Mof_O 	O 	0.0551	0.2765	0.6127	-0.751
Mof_O 	O 	0.1077	0.969	0.7803	-0.693
Mof_O 	O 	0.1884	0.1705	0.7204	-0.689
Mof_O 	O 	0.6207	0.9821	0.7396	-0.564
Mof_O 	O 	0.7478	0.8902	0.819	-0.668
Mof_O 	O 	0.8084	0.0844	0.7605	-0.425
Mof_O 	O 	0.6742	0.1736	0.6747	-0.651
Mof_O 	O 	0.6776	0.2791	0.7715	-0.701
Mof_O 	O 	0.6294	0.0809	0.8303	-0.702
Mof_O 	O 	0.9007	0.9817	0.8659	-0.738
Mof_O 	O 	0.7981	0.15	0.8724	-0.754
Mof_O 	O 	0.975	0.2678	0.8752	-0.629
Mof_O 	O 	0.089	0.0727	0.8689	-0.673
Mof_O 	O 	0.9814	0.172	0.7828	-0.424
Mof_O 	O 	0.1678	0.262	0.8119	-0.556
Mof_O 	O 	0.8739	0.3806	0.7942	-0.662
Mof_O 	O 	0.0687	0.3731	0.7258	-0.699
Mof_O 	O 	0.9516	0.4486	0.642	-0.7
Mof_O 	O 	0.7634	0.4629	0.7077	-0.547
Mof_O 	O 	0.8755	0.2618	0.7048	-0.43
Mof_O 	O 	0.7668	0.3557	0.6197	-0.651
Mof_O 	O 	0.7017	0.281	0.5204	-0.504
Mof_O 	O 	0.5625	0.2333	0.5782	-0.487
Mof_O 	O 	0.8797	0.7454	0.923	-0.52
Mof_O 	O 	0.7443	0.6418	0.9651	-0.386
Mof_O 	O 	0.8187	0.4774	0.8907	-0.481
Mof_O 	O 	0.7973	0.3338	0.9515	-0.497
Mof_O 	O 	0.2905	0.2994	0.5563	-0.506
Mof_O 	O 	0.3996	0.2231	0.4939	-0.385
Mof_O 	O 	0.086	0.1347	0.2499	-0.722
Mof_O 	O 	0.2049	0.0315	0.3338	-0.72
Mof_O 	O 	0.9035	0.107	0.3176	-0.578
Mof_O 	O 	0.022	0.0048	0.3992	-0.709
Mof_O 	O 	0.0195	0.9158	0.3028	-0.424
Mof_O 	O 	0.8356	0.9133	0.3718	-0.662
Mof_O 	O 	0.1062	0.8072	0.4068	-0.76
Mof_O 	O 	0.9449	0.7235	0.3873	-0.751
Mof_O 	O 	0.8923	0.031	0.2197	-0.693
Mof_O 	O 	0.8116	0.8295	0.2796	-0.689
Mof_O 	O 	0.3793	0.0179	0.2604	-0.564
Mof_O 	O 	0.2522	0.1098	0.181	-0.668
Mof_O 	O 	0.1916	0.9156	0.2395	-0.425
Mof_O 	O 	0.3258	0.8264	0.3253	-0.651
Mof_O 	O 	0.3224	0.7209	0.2285	-0.701
Mof_O 	O 	0.3706	0.9191	0.1697	-0.702
Mof_O 	O 	0.0993	0.0183	0.1341	-0.738
Mof_O 	O 	0.2019	0.85	0.1276	-0.754
Mof_O 	O 	0.025	0.7322	0.1248	-0.629
Mof_O 	O 	0.911	0.9273	0.1311	-0.673
Mof_O 	O 	0.0186	0.828	0.2172	-0.424
Mof_O 	O 	0.8322	0.738	0.1881	-0.556
Mof_O 	O 	0.1261	0.6194	0.2058	-0.662
Mof_O 	O 	0.9313	0.6269	0.2742	-0.699
Mof_O 	O 	0.0484	0.5514	0.358	-0.7
Mof_O 	O 	0.2366	0.5371	0.2923	-0.547
Mof_O 	O 	0.1245	0.7382	0.2952	-0.43
Mof_O 	O 	0.2332	0.6443	0.3803	-0.651
Mof_O 	O 	0.2983	0.719	0.4796	-0.504
Mof_O 	O 	0.4375	0.7667	0.4218	-0.487
Mof_O 	O 	0.1203	0.2546	0.077	-0.52
Mof_O 	O 	0.2557	0.3582	0.0349	-0.386
Mof_O 	O 	0.1813	0.5226	0.1093	-0.481
Mof_O 	O 	0.2027	0.6662	0.0485	-0.497
Mof_O 	O 	0.7095	0.7006	0.4437	-0.506
Mof_O 	O 	0.6004	0.7769	0.5061	-0.385
_end
