# CIF file generated by openbabel 3.1.0, see https://openbabel.org
data_I
_chemical_name_common 'image0'
_cell_length_a 10.3161
_cell_length_b 12.749
_cell_length_c 17.9127
_cell_angle_alpha 90
_cell_angle_beta 102.476
_cell_angle_gamma 90
_space_group_name_H-M_alt 'P 1'
_space_group_name_Hall 'P 1'
loop_
    _symmetry_equiv_pos_as_xyz
    x,y,z
loop_
    _atom_site_label
    _atom_site_type_symbol
    _atom_site_fract_x
    _atom_site_fract_y
    _atom_site_fract_z
    _atom_site_occupancy
    In1      In       0.75400    0.57256    0.22234    1.000
    In2      In       0.03099    0.38353    0.29213    1.000
    In3      In       0.55673    0.52146    0.37411    1.000
    In4      In       0.13290    0.64767    0.07780    1.000
    P1       P        0.43480    0.61622    0.19238    1.000
    P2       P        0.77958    0.84016    0.20084    1.000
    P3       P        0.29745    0.41037    0.44159    1.000
    P4       P        0.91912    0.45375    0.10785    1.000
    F1       F        0.71270    0.59390    0.33215    1.000
    F2       F        0.95180    0.53770    0.28222    1.000
    O1       O        0.32630    0.29500    0.46680    1.000
    O2       O        0.31910    0.58320    0.12710    1.000
    O3       O        0.44220    0.54040    0.26000    1.000
    O4       O        0.38640    0.44170    0.38650    1.000
    O5       O        0.82100    0.54200    0.12060    1.000
    O6       O        0.15080    0.42080    0.40050    1.000
    O7       O        0.56240    0.61220    0.16160    1.000
    O8       O        0.63240    0.84070    0.16070    1.000
    O9       O        0.86110    0.40160    0.03190    1.000
    O10      O        0.82540    0.72900    0.23010    1.000
    O11      O        0.86450    0.87110    0.14250    1.000
    O12      O        0.93920    0.37170    0.17230    1.000
    O13      O        0.32600    0.47970    0.51320    1.000
    O14      O        0.80760    0.91580    0.26870    1.000
    O15      O        0.40770    0.72770    0.21860    1.000
    O16      O        0.05490    0.50370    0.10770    1.000
    In5      In       0.74600    0.07256    0.27766    1.000
    In6      In       0.46901    0.88353    0.20787    1.000
    In7      In       0.94327    0.02146    0.12589    1.000
    In8      In       0.36710    0.14767    0.42220    1.000
    P5       P        0.06520    0.11622    0.30762    1.000
    P6       P        0.72042    0.34016    0.29916    1.000
    P7       P        0.20255    0.91037    0.05841    1.000
    P8       P        0.58088    0.95375    0.39215    1.000
    F3       F        0.78730    0.09390    0.16785    1.000
    F4       F        0.54820    0.03770    0.21778    1.000
    O17      O        0.17370    0.79500    0.03320    1.000
    O18      O        0.18090    0.08320    0.37290    1.000
    O19      O        0.05780    0.04040    0.24000    1.000
    O20      O        0.11360    0.94170    0.11350    1.000
    O21      O        0.67900    0.04200    0.37940    1.000
    O22      O        0.34920    0.92080    0.09950    1.000
    O23      O        0.93760    0.11220    0.33840    1.000
    O24      O        0.86760    0.34070    0.33930    1.000
    O25      O        0.63890    0.90160    0.46810    1.000
    O26      O        0.67460    0.22900    0.26990    1.000
    O27      O        0.63550    0.37110    0.35750    1.000
    O28      O        0.56080    0.87170    0.32770    1.000
    O29      O        0.17400    0.97970    0.98680    1.000
    O30      O        0.69240    0.41580    0.23130    1.000
    O31      O        0.09230    0.22770    0.28140    1.000
    O32      O        0.44510    0.00370    0.39230    1.000
    In9      In       0.24600    0.42744    0.77766    1.000
    In10     In       0.96901    0.61647    0.70787    1.000
    In11     In       0.44327    0.47854    0.62589    1.000
    In12     In       0.86710    0.35233    0.92220    1.000
    P9       P        0.56520    0.38378    0.80762    1.000
    P10      P        0.22042    0.15984    0.79916    1.000
    P11      P        0.70255    0.58963    0.55841    1.000
    P12      P        0.08088    0.54625    0.89215    1.000
    F5       F        0.28730    0.40610    0.66785    1.000
    F6       F        0.04820    0.46230    0.71778    1.000
    O33      O        0.67370    0.70500    0.53320    1.000
    O34      O        0.68090    0.41680    0.87290    1.000
    O35      O        0.55780    0.45960    0.74000    1.000
    O36      O        0.61360    0.55830    0.61350    1.000
    O37      O        0.17900    0.45800    0.87940    1.000
    O38      O        0.84920    0.57920    0.59950    1.000
    O39      O        0.43760    0.38780    0.83840    1.000
    O40      O        0.36760    0.15930    0.83930    1.000
    O41      O        0.13890    0.59840    0.96810    1.000
    O42      O        0.17460    0.27100    0.76990    1.000
    O43      O        0.13550    0.12890    0.85750    1.000
    O44      O        0.06080    0.62830    0.82770    1.000
    O45      O        0.67400    0.52030    0.48680    1.000
    O46      O        0.19240    0.08420    0.73130    1.000
    O47      O        0.59230    0.27230    0.78140    1.000
    O48      O        0.94510    0.49630    0.89230    1.000
    In13     In       0.25400    0.92744    0.72234    1.000
    In14     In       0.53099    0.11647    0.79213    1.000
    In15     In       0.05673    0.97854    0.87411    1.000
    In16     In       0.63290    0.85233    0.57780    1.000
    P13      P        0.93480    0.88378    0.69238    1.000
    P14      P        0.27958    0.65984    0.70084    1.000
    P15      P        0.79745    0.08963    0.94159    1.000
    P16      P        0.41912    0.04625    0.60785    1.000
    F7       F        0.21270    0.90610    0.83215    1.000
    F8       F        0.45180    0.96230    0.78222    1.000
    O49      O        0.82630    0.20500    0.96680    1.000
    O50      O        0.81910    0.91680    0.62710    1.000
    O51      O        0.94220    0.95960    0.76000    1.000
    O52      O        0.88640    0.05830    0.88650    1.000
    O53      O        0.32100    0.95800    0.62060    1.000
    O54      O        0.65080    0.07920    0.90050    1.000
    O55      O        0.06240    0.88780    0.66160    1.000
    O56      O        0.13240    0.65930    0.66070    1.000
    O57      O        0.36110    0.09840    0.53190    1.000
    O58      O        0.32540    0.77100    0.73010    1.000
    O59      O        0.36450    0.62890    0.64250    1.000
    O60      O        0.43920    0.12830    0.67230    1.000
    O61      O        0.82600    0.02030    0.01320    1.000
    O62      O        0.30760    0.58420    0.76870    1.000
    O63      O        0.90770    0.77230    0.71860    1.000
    O64      O        0.55490    0.99630    0.60770    1.000
