# CIF file generated by openbabel 3.1.0, see https://openbabel.org
data_I
_chemical_name_common 'image0'
_cell_length_a 13.518
_cell_length_b 13.518
_cell_length_c 26.42
_cell_angle_alpha 90
_cell_angle_beta 90
_cell_angle_gamma 90
_space_group_name_H-M_alt 'P 1'
_space_group_name_Hall 'P 1'
loop_
    _symmetry_equiv_pos_as_xyz
    x,y,z
loop_
    _atom_site_label
    _atom_site_type_symbol
    _atom_site_fract_x
    _atom_site_fract_y
    _atom_site_fract_z
    _atom_site_occupancy
    Zn1      Zn       0.65982    0.77207    0.30357    1.000
    N1       N        0.37130    0.78910    0.24710    1.000
    N2       N        0.35850    0.72390    0.28610    1.000
    N3       N        0.51540    0.76500    0.28520    1.000
    O1       O        0.61480    0.70680    0.38840    1.000
    O2       O        0.70650    0.83080    0.36750    1.000
    C1       C        0.46690    0.81400    0.24870    1.000
    H1       H        0.49620    0.85980    0.22710    1.000
    C2       C        0.44280    0.70830    0.30740    1.000
    H2       H        0.45320    0.66470    0.33410    1.000
    C3       C        0.66820    0.77720    0.39950    1.000
    C4       C        0.69170    0.80000    0.45420    1.000
    C5       C        0.77270    0.85040    0.47180    1.000
    H3       H        0.82050    0.88020    0.45160    1.000
    C6       C        0.73550    0.87560    0.47140    1.000
    H4       H        0.76400    0.92470    0.45140    1.000
    Zn2      Zn       0.15982    0.27207    0.80357    1.000
    N4       N        0.87130    0.28910    0.74710    1.000
    N5       N        0.85850    0.22390    0.78610    1.000
    N6       N        0.01540    0.26500    0.78520    1.000
    O3       O        0.11480    0.20680    0.88840    1.000
    O4       O        0.20650    0.33080    0.86750    1.000
    C7       C        0.96690    0.31400    0.74870    1.000
    H5       H        0.99620    0.35980    0.72710    1.000
    C8       C        0.94280    0.20830    0.80740    1.000
    H6       H        0.95320    0.16470    0.83410    1.000
    C9       C        0.16820    0.27720    0.89950    1.000
    C10      C        0.19170    0.30000    0.95420    1.000
    C11      C        0.27270    0.35040    0.97180    1.000
    H7       H        0.32050    0.38020    0.95160    1.000
    C12      C        0.23550    0.37560    0.97140    1.000
    H8       H        0.26400    0.42470    0.95140    1.000
    Zn3      Zn       0.34018    0.22793    0.30357    1.000
    N7       N        0.62870    0.21090    0.24710    1.000
    N8       N        0.64150    0.27610    0.28610    1.000
    N9       N        0.48460    0.23500    0.28520    1.000
    O5       O        0.38520    0.29320    0.38840    1.000
    O6       O        0.29350    0.16920    0.36750    1.000
    C13      C        0.53310    0.18600    0.24870    1.000
    H9       H        0.50380    0.14020    0.22710    1.000
    C14      C        0.55720    0.29170    0.30740    1.000
    H10      H        0.54680    0.33530    0.33410    1.000
    C15      C        0.33180    0.22280    0.39950    1.000
    C16      C        0.30830    0.20000    0.45420    1.000
    C17      C        0.22730    0.14960    0.47180    1.000
    H11      H        0.17950    0.11980    0.45160    1.000
    C18      C        0.26450    0.12440    0.47140    1.000
    H12      H        0.23600    0.07530    0.45140    1.000
    Zn4      Zn       0.84018    0.72793    0.80357    1.000
    N10      N        0.12870    0.71090    0.74710    1.000
    N11      N        0.14150    0.77610    0.78610    1.000
    N12      N        0.98460    0.73500    0.78520    1.000
    O7       O        0.88520    0.79320    0.88840    1.000
    O8       O        0.79350    0.66920    0.86750    1.000
    C19      C        0.03310    0.68600    0.74870    1.000
    H13      H        0.00380    0.64020    0.72710    1.000
    C20      C        0.05720    0.79170    0.80740    1.000
    H14      H        0.04680    0.83530    0.83410    1.000
    C21      C        0.83180    0.72280    0.89950    1.000
    C22      C        0.80830    0.70000    0.95420    1.000
    C23      C        0.72730    0.64960    0.97180    1.000
    H15      H        0.67950    0.61980    0.95160    1.000
    C24      C        0.76450    0.62440    0.97140    1.000
    H16      H        0.73600    0.57530    0.95140    1.000
    Zn5      Zn       0.22793    0.65982    0.30357    1.000
    N13      N        0.21090    0.37130    0.24710    1.000
    N14      N        0.27610    0.35850    0.28610    1.000
    N15      N        0.23500    0.51540    0.28520    1.000
    O9       O        0.29320    0.61480    0.38840    1.000
    O10      O        0.16920    0.70650    0.36750    1.000
    C25      C        0.18600    0.46690    0.24870    1.000
    H17      H        0.14020    0.49620    0.22710    1.000
    C26      C        0.29170    0.44280    0.30740    1.000
    H18      H        0.33530    0.45320    0.33410    1.000
    C27      C        0.22280    0.66820    0.39950    1.000
    C28      C        0.20000    0.69170    0.45420    1.000
    C29      C        0.14960    0.77270    0.47180    1.000
    H19      H        0.11980    0.82050    0.45160    1.000
    C30      C        0.12440    0.73550    0.47140    1.000
    H20      H        0.07530    0.76400    0.45140    1.000
    Zn6      Zn       0.72793    0.15982    0.80357    1.000
    N16      N        0.71090    0.87130    0.74710    1.000
    N17      N        0.77610    0.85850    0.78610    1.000
    N18      N        0.73500    0.01540    0.78520    1.000
    O11      O        0.79320    0.11480    0.88840    1.000
    O12      O        0.66920    0.20650    0.86750    1.000
    C31      C        0.68600    0.96690    0.74870    1.000
    H21      H        0.64020    0.99620    0.72710    1.000
    C32      C        0.79170    0.94280    0.80740    1.000
    H22      H        0.83530    0.95320    0.83410    1.000
    C33      C        0.72280    0.16820    0.89950    1.000
    C34      C        0.70000    0.19170    0.95420    1.000
    C35      C        0.64960    0.27270    0.97180    1.000
    H23      H        0.61980    0.32050    0.95160    1.000
    C36      C        0.62440    0.23550    0.97140    1.000
    H24      H        0.57530    0.26400    0.95140    1.000
    Zn7      Zn       0.77207    0.34018    0.30357    1.000
    N19      N        0.78910    0.62870    0.24710    1.000
    N20      N        0.72390    0.64150    0.28610    1.000
    N21      N        0.76500    0.48460    0.28520    1.000
    O13      O        0.70680    0.38520    0.38840    1.000
    O14      O        0.83080    0.29350    0.36750    1.000
    C37      C        0.81400    0.53310    0.24870    1.000
    H25      H        0.85980    0.50380    0.22710    1.000
    C38      C        0.70830    0.55720    0.30740    1.000
    H26      H        0.66470    0.54680    0.33410    1.000
    C39      C        0.77720    0.33180    0.39950    1.000
    C40      C        0.80000    0.30830    0.45420    1.000
    C41      C        0.85040    0.22730    0.47180    1.000
    H27      H        0.88020    0.17950    0.45160    1.000
    C42      C        0.87560    0.26450    0.47140    1.000
    H28      H        0.92470    0.23600    0.45140    1.000
    Zn8      Zn       0.27207    0.84018    0.80357    1.000
    N22      N        0.28910    0.12870    0.74710    1.000
    N23      N        0.22390    0.14150    0.78610    1.000
    N24      N        0.26500    0.98460    0.78520    1.000
    O15      O        0.20680    0.88520    0.88840    1.000
    O16      O        0.33080    0.79350    0.86750    1.000
    C43      C        0.31400    0.03310    0.74870    1.000
    H29      H        0.35980    0.00380    0.72710    1.000
    C44      C        0.20830    0.05720    0.80740    1.000
    H30      H        0.16470    0.04680    0.83410    1.000
    C45      C        0.27720    0.83180    0.89950    1.000
    C46      C        0.30000    0.80830    0.95420    1.000
    C47      C        0.35040    0.72730    0.97180    1.000
    H31      H        0.38020    0.67950    0.95160    1.000
    C48      C        0.37560    0.76450    0.97140    1.000
    H32      H        0.42470    0.73600    0.95140    1.000
    Zn9      Zn       0.34018    0.22793    0.69643    1.000
    N25      N        0.62870    0.21090    0.75290    1.000
    N26      N        0.64150    0.27610    0.71390    1.000
    N27      N        0.48460    0.23500    0.71480    1.000
    O17      O        0.38520    0.29320    0.61160    1.000
    O18      O        0.29350    0.16920    0.63250    1.000
    C49      C        0.53310    0.18600    0.75130    1.000
    H33      H        0.50380    0.14020    0.77290    1.000
    C50      C        0.55720    0.29170    0.69260    1.000
    H34      H        0.54680    0.33530    0.66590    1.000
    C51      C        0.33180    0.22280    0.60050    1.000
    C52      C        0.30830    0.20000    0.54580    1.000
    C53      C        0.22730    0.14960    0.52820    1.000
    H35      H        0.17950    0.11980    0.54840    1.000
    C54      C        0.26450    0.12440    0.52860    1.000
    H36      H        0.23600    0.07530    0.54860    1.000
    Zn10     Zn       0.84018    0.72793    0.19643    1.000
    N28      N        0.12870    0.71090    0.25290    1.000
    N29      N        0.14150    0.77610    0.21390    1.000
    N30      N        0.98460    0.73500    0.21480    1.000
    O19      O        0.88520    0.79320    0.11160    1.000
    O20      O        0.79350    0.66920    0.13250    1.000
    C55      C        0.03310    0.68600    0.25130    1.000
    H37      H        0.00380    0.64020    0.27290    1.000
    C56      C        0.05720    0.79170    0.19260    1.000
    H38      H        0.04680    0.83530    0.16590    1.000
    C57      C        0.83180    0.72280    0.10050    1.000
    C58      C        0.80830    0.70000    0.04580    1.000
    C59      C        0.72730    0.64960    0.02820    1.000
    H39      H        0.67950    0.61980    0.04840    1.000
    C60      C        0.76450    0.62440    0.02860    1.000
    H40      H        0.73600    0.57530    0.04860    1.000
    Zn11     Zn       0.65982    0.77207    0.69643    1.000
    N31      N        0.37130    0.78910    0.75290    1.000
    N32      N        0.35850    0.72390    0.71390    1.000
    N33      N        0.51540    0.76500    0.71480    1.000
    O21      O        0.61480    0.70680    0.61160    1.000
    O22      O        0.70650    0.83080    0.63250    1.000
    C61      C        0.46690    0.81400    0.75130    1.000
    H41      H        0.49620    0.85980    0.77290    1.000
    C62      C        0.44280    0.70830    0.69260    1.000
    H42      H        0.45320    0.66470    0.66590    1.000
    C63      C        0.66820    0.77720    0.60050    1.000
    C64      C        0.69170    0.80000    0.54580    1.000
    C65      C        0.77270    0.85040    0.52820    1.000
    H43      H        0.82050    0.88020    0.54840    1.000
    C66      C        0.73550    0.87560    0.52860    1.000
    H44      H        0.76400    0.92470    0.54860    1.000
    Zn12     Zn       0.15982    0.27207    0.19643    1.000
    N34      N        0.87130    0.28910    0.25290    1.000
    N35      N        0.85850    0.22390    0.21390    1.000
    N36      N        0.01540    0.26500    0.21480    1.000
    O23      O        0.11480    0.20680    0.11160    1.000
    O24      O        0.20650    0.33080    0.13250    1.000
    C67      C        0.96690    0.31400    0.25130    1.000
    H45      H        0.99620    0.35980    0.27290    1.000
    C68      C        0.94280    0.20830    0.19260    1.000
    H46      H        0.95320    0.16470    0.16590    1.000
    C69      C        0.16820    0.27720    0.10050    1.000
    C70      C        0.19170    0.30000    0.04580    1.000
    C71      C        0.27270    0.35040    0.02820    1.000
    H47      H        0.32050    0.38020    0.04840    1.000
    C72      C        0.23550    0.37560    0.02860    1.000
    H48      H        0.26400    0.42470    0.04860    1.000
    Zn13     Zn       0.77207    0.34018    0.69643    1.000
    N37      N        0.78910    0.62870    0.75290    1.000
    N38      N        0.72390    0.64150    0.71390    1.000
    N39      N        0.76500    0.48460    0.71480    1.000
    O25      O        0.70680    0.38520    0.61160    1.000
    O26      O        0.83080    0.29350    0.63250    1.000
    C73      C        0.81400    0.53310    0.75130    1.000
    H49      H        0.85980    0.50380    0.77290    1.000
    C74      C        0.70830    0.55720    0.69260    1.000
    H50      H        0.66470    0.54680    0.66590    1.000
    C75      C        0.77720    0.33180    0.60050    1.000
    C76      C        0.80000    0.30830    0.54580    1.000
    C77      C        0.85040    0.22730    0.52820    1.000
    H51      H        0.88020    0.17950    0.54840    1.000
    C78      C        0.87560    0.26450    0.52860    1.000
    H52      H        0.92470    0.23600    0.54860    1.000
    Zn14     Zn       0.27207    0.84018    0.19643    1.000
    N40      N        0.28910    0.12870    0.25290    1.000
    N41      N        0.22390    0.14150    0.21390    1.000
    N42      N        0.26500    0.98460    0.21480    1.000
    O27      O        0.20680    0.88520    0.11160    1.000
    O28      O        0.33080    0.79350    0.13250    1.000
    C79      C        0.31400    0.03310    0.25130    1.000
    H53      H        0.35980    0.00380    0.27290    1.000
    C80      C        0.20830    0.05720    0.19260    1.000
    H54      H        0.16470    0.04680    0.16590    1.000
    C81      C        0.27720    0.83180    0.10050    1.000
    C82      C        0.30000    0.80830    0.04580    1.000
    C83      C        0.35040    0.72730    0.02820    1.000
    H55      H        0.38020    0.67950    0.04840    1.000
    C84      C        0.37560    0.76450    0.02860    1.000
    H56      H        0.42470    0.73600    0.04860    1.000
    Zn15     Zn       0.22793    0.65982    0.69643    1.000
    N43      N        0.21090    0.37130    0.75290    1.000
    N44      N        0.27610    0.35850    0.71390    1.000
    N45      N        0.23500    0.51540    0.71480    1.000
    O29      O        0.29320    0.61480    0.61160    1.000
    O30      O        0.16920    0.70650    0.63250    1.000
    C85      C        0.18600    0.46690    0.75130    1.000
    H57      H        0.14020    0.49620    0.77290    1.000
    C86      C        0.29170    0.44280    0.69260    1.000
    H58      H        0.33530    0.45320    0.66590    1.000
    C87      C        0.22280    0.66820    0.60050    1.000
    C88      C        0.20000    0.69170    0.54580    1.000
    C89      C        0.14960    0.77270    0.52820    1.000
    H59      H        0.11980    0.82050    0.54840    1.000
    C90      C        0.12440    0.73550    0.52860    1.000
    H60      H        0.07530    0.76400    0.54860    1.000
    Zn16     Zn       0.72793    0.15982    0.19643    1.000
    N46      N        0.71090    0.87130    0.25290    1.000
    N47      N        0.77610    0.85850    0.21390    1.000
    N48      N        0.73500    0.01540    0.21480    1.000
    O31      O        0.79320    0.11480    0.11160    1.000
    O32      O        0.66920    0.20650    0.13250    1.000
    C91      C        0.68600    0.96690    0.25130    1.000
    H61      H        0.64020    0.99620    0.27290    1.000
    C92      C        0.79170    0.94280    0.19260    1.000
    H62      H        0.83530    0.95320    0.16590    1.000
    C93      C        0.72280    0.16820    0.10050    1.000
    C94      C        0.70000    0.19170    0.04580    1.000
    C95      C        0.64960    0.27270    0.02820    1.000
    H63      H        0.61980    0.32050    0.04840    1.000
    C96      C        0.62440    0.23550    0.02860    1.000
    H64      H        0.57530    0.26400    0.04860    1.000
    S1       S        0.63160    0.73210    0.50000    1.000
    S2       S        0.13160    0.23210    0.00000    1.000
    S3       S        0.36840    0.26790    0.50000    1.000
    S4       S        0.86840    0.76790    0.00000    1.000
    S5       S        0.26790    0.63160    0.50000    1.000
    S6       S        0.76790    0.13160    0.00000    1.000
    S7       S        0.73210    0.36840    0.50000    1.000
    S8       S        0.23210    0.86840    0.00000    1.000
