data_functionalizedCrystal
_audit_creation_method	'EQeq! by Chris Wilmer'
_symmetry_space_group_name_H-M	'P1'
_symmetry_Int_Tables_number	1
_symmetry_cell_setting	triclinic
loop_
_symmetry_equiv_pos_as_xyz
  x,y,z
_cell_length_a	26.297
_cell_length_b	26.297
_cell_length_c	4.9766
_cell_angle_alpha	90
_cell_angle_beta	90
_cell_angle_gamma	90
loop_
_atom_site_label
_atom_site_type_symbol
_atom_site_fract_x
_atom_site_fract_y
_atom_site_fract_z
_atom_site_charge
Mof_Zn	Zn	0.2716	0.21545	0.8824	1.223
Mof_O 	O 	0.2243	0.2676	0.017	-0.812
Mof_N 	N 	0.2452	0.1462	0.925	-0.298
Mof_O 	O 	0.3376	0.2286	0.065	-0.517
Mof_H 	H 	0.2036	0.2786	0.9049	0.317
Mof_C 	C 	0.2594	0.1084	0.077	0.134
Mof_C 	C 	0.2069	0.1236	0.7648	0.047
Mof_H 	H 	0.2847	0.1126	0.2055	-0.022
Mof_N 	N 	0.2361	0.0627	0.0433	-0.162
Mof_C 	C 	0.1776	0.1452	0.565	-0.138
Mof_C 	C 	0.2005	0.0734	0.845	0.062
Mof_C 	C 	0.2504	0.0156	0.168	0.16
Mof_H 	H 	0.1815	0.1792	0.5183	0.053
Mof_C 	C 	0.142	0.1149	0.4345	0.052
Mof_C 	C 	0.1665	0.0424	0.7118	-0.12
Mof_C 	C 	0.2732	0.0141	0.418	-0.197
Mof_C 	C 	0.2411	0.9704	0.035	0.047
Mof_C 	C 	0.112	0.1349	0.232	-0.094
Mof_C 	C 	0.1369	0.064	0.5103	0.039
Mof_H 	H 	0.1634	0.0081	0.7552	0.072
Mof_H 	H 	0.2796	0.0444	0.508	0.102
Mof_C 	C 	0.2868	0.9688	0.536	0.131
Mof_C 	C 	0.254	0.9242	0.146	-0.057
Mof_H 	H 	0.2257	0.9712	0.8667	0.014
Mof_H 	H 	0.1161	0.1689	0.1863	0.061
Mof_C 	C 	0.0762	0.1063	0.096	-0.013
Mof_C 	C 	0.1008	0.035	0.374	-0.084
Mof_C 	C 	0.2768	0.9249	0.394	-0.161
Mof_H 	H 	0.3021	0.9678	0.7046	0
Mof_H 	H 	0.2475	0.8939	0.057	0.069
Mof_H 	H 	0.0563	0.1203	0.9603	0.024
Mof_C 	C 	0.0711	0.0557	0.1718	-0.035
Mof_H 	H 	0.0964	0.001	0.4204	0.058
Mof_C 	C 	0.292	0.8747	0.527	0.551
Mof_H 	H 	0.0474	0.0354	0.0848	0.036
Mof_O 	O 	0.2996	0.8775	0.779	-0.305
Mof_O 	O 	0.3418	0.8741	0.538	-0.267
Mof_C 	C 	0.2994	0.0086	0.255	0.003
Mof_H 	H 	0.323	0.0347	0.2357	0.042
Mof_C 	C 	0.3143	0.9626	0.371	-0.052
Mof_H 	H 	0.3474	0.9572	0.4304	0.075
Mof_C 	C 	0.2262	0.9289	0.309	0.131
Mof_H 	H 	0.2024	0.9029	0.326	-0.016
Mof_C 	C 	0.2155	0.9764	0.197	-0.227
Mof_H 	H 	0.1825	0.9822	0.1375	0.107
Mof_Zn	Zn	0.7716	0.71545	0.3824	1.228
Mof_O 	O 	0.7243	0.7676	0.517	-0.839
Mof_N 	N 	0.7452	0.6462	0.425	-0.284
Mof_O 	O 	0.8376	0.7286	0.565	-0.549
Mof_H 	H 	0.7036	0.7786	0.4049	0.335
Mof_C 	C 	0.7594	0.6084	0.577	0.109
Mof_C 	C 	0.7069	0.6236	0.2648	0.028
Mof_H 	H 	0.7847	0.6126	0.7055	-0.016
Mof_N 	N 	0.7361	0.5627	0.5433	-0.163
Mof_C 	C 	0.6776	0.6452	0.065	-0.097
Mof_C 	C 	0.7005	0.5734	0.345	0.088
Mof_C 	C 	0.7504	0.5156	0.668	0.135
Mof_H 	H 	0.6815	0.6792	0.0183	0.042
Mof_C 	C 	0.642	0.6149	0.9345	0.001
Mof_C 	C 	0.6665	0.5424	0.2118	-0.149
Mof_C 	C 	0.7732	0.5141	0.918	-0.411
Mof_C 	C 	0.7411	0.4704	0.535	0.177
Mof_C 	C 	0.612	0.6349	0.732	-0.052
Mof_C 	C 	0.6369	0.564	0.0103	0.083
Mof_H 	H 	0.6634	0.5081	0.2552	0.083
Mof_H 	H 	0.7796	0.5444	0.008	0.171
Mof_C 	C 	0.7868	0.4688	0.036	0.315
Mof_C 	C 	0.754	0.4242	0.646	-0.195
Mof_H 	H 	0.7257	0.4712	0.3667	-0.034
Mof_H 	H 	0.6161	0.6689	0.6863	0.04
Mof_C 	C 	0.5762	0.6063	0.596	-0.058
Mof_C 	C 	0.6008	0.535	0.874	-0.125
Mof_C 	C 	0.7768	0.4249	0.894	-0.106
Mof_H 	H 	0.8021	0.4678	0.2046	-0.067
Mof_H 	H 	0.7475	0.3939	0.557	0.118
Mof_H 	H 	0.5563	0.6203	0.4603	0.042
Mof_C 	C 	0.5711	0.5557	0.6718	0.003
Mof_H 	H 	0.5964	0.501	0.9204	0.073
Mof_C 	C 	0.792	0.3747	0.027	0.492
Mof_H 	H 	0.5474	0.5354	0.5848	0.023
Mof_O 	O 	0.7996	0.3775	0.279	-0.296
Mof_O 	O 	0.8418	0.3741	0.038	-0.265
Mof_C 	C 	0.7994	0.5086	0.755	0.26
Mof_H 	H 	0.823	0.5347	0.7357	-0.047
Mof_C 	C 	0.8143	0.4626	0.871	-0.283
Mof_H 	H 	0.8474	0.4572	0.9304	0.161
Mof_C 	C 	0.7262	0.4289	0.809	0.233
Mof_H 	H 	0.7024	0.4029	0.826	-0.048
Mof_C 	C 	0.7155	0.4764	0.697	-0.325
Mof_H 	H 	0.6825	0.4822	0.6375	0.139
Mof_Zn	Zn	0.7284	0.78455	0.8824	1.222
Mof_O 	O 	0.7757	0.7324	0.017	-0.813
Mof_N 	N 	0.7548	0.8538	0.925	-0.299
Mof_O 	O 	0.6624	0.7714	0.065	-0.518
Mof_H 	H 	0.7964	0.7214	0.9049	0.317
Mof_C 	C 	0.7406	0.8916	0.077	0.134
Mof_C 	C 	0.7931	0.8764	0.7648	0.047
Mof_H 	H 	0.7153	0.8874	0.2055	-0.022
Mof_N 	N 	0.7639	0.9373	0.0433	-0.162
Mof_C 	C 	0.8224	0.8548	0.565	-0.138
Mof_C 	C 	0.7995	0.9266	0.845	0.062
Mof_C 	C 	0.7496	0.9844	0.168	0.16
Mof_H 	H 	0.8185	0.8208	0.5183	0.053
Mof_C 	C 	0.858	0.8851	0.4345	0.052
Mof_C 	C 	0.8335	0.9576	0.7118	-0.12
Mof_C 	C 	0.7268	0.9859	0.418	-0.197
Mof_C 	C 	0.7589	0.0296	0.035	0.047
Mof_C 	C 	0.888	0.8651	0.232	-0.094
Mof_C 	C 	0.8631	0.936	0.5103	0.039
Mof_H 	H 	0.8366	0.9919	0.7552	0.072
Mof_H 	H 	0.7204	0.9556	0.508	0.102
Mof_C 	C 	0.7132	0.0312	0.536	0.131
Mof_C 	C 	0.746	0.0758	0.146	-0.057
Mof_H 	H 	0.7743	0.0288	0.8667	0.014
Mof_H 	H 	0.8839	0.8311	0.1863	0.061
Mof_C 	C 	0.9238	0.8937	0.096	-0.013
Mof_C 	C 	0.8992	0.965	0.374	-0.084
Mof_C 	C 	0.7232	0.0751	0.394	-0.161
Mof_H 	H 	0.6979	0.0322	0.7046	0
Mof_H 	H 	0.7525	0.1061	0.057	0.069
Mof_H 	H 	0.9437	0.8797	0.9603	0.024
Mof_C 	C 	0.9289	0.9443	0.1718	-0.035
Mof_H 	H 	0.9036	0.999	0.4204	0.058
Mof_C 	C 	0.708	0.1253	0.527	0.551
Mof_H 	H 	0.9526	0.9646	0.0848	0.036
Mof_O 	O 	0.7004	0.1225	0.779	-0.305
Mof_O 	O 	0.6582	0.1259	0.538	-0.267
Mof_C 	C 	0.7006	0.9914	0.255	0.003
Mof_H 	H 	0.677	0.9653	0.2357	0.042
Mof_C 	C 	0.6857	0.0374	0.371	-0.052
Mof_H 	H 	0.6526	0.0428	0.4304	0.075
Mof_C 	C 	0.7738	0.0711	0.309	0.131
Mof_H 	H 	0.7976	0.0971	0.326	-0.016
Mof_C 	C 	0.7845	0.0236	0.197	-0.227
Mof_H 	H 	0.8175	0.0178	0.1375	0.107
Mof_Zn	Zn	0.2284	0.28455	0.3824	1.228
Mof_O 	O 	0.2757	0.2324	0.517	-0.839
Mof_N 	N 	0.2548	0.3538	0.425	-0.284
Mof_O 	O 	0.1624	0.2714	0.565	-0.549
Mof_H 	H 	0.2964	0.2214	0.4049	0.335
Mof_C 	C 	0.2406	0.3916	0.577	0.109
Mof_C 	C 	0.2931	0.3764	0.2648	0.028
Mof_H 	H 	0.2153	0.3874	0.7055	-0.016
Mof_N 	N 	0.2639	0.4373	0.5433	-0.163
Mof_C 	C 	0.3224	0.3548	0.065	-0.097
Mof_C 	C 	0.2995	0.4266	0.345	0.088
Mof_C 	C 	0.2496	0.4844	0.668	0.135
Mof_H 	H 	0.3185	0.3208	0.0183	0.042
Mof_C 	C 	0.358	0.3851	0.9345	0.001
Mof_C 	C 	0.3335	0.4576	0.2118	-0.149
Mof_C 	C 	0.2268	0.4859	0.918	-0.411
Mof_C 	C 	0.2589	0.5296	0.535	0.177
Mof_C 	C 	0.388	0.3651	0.732	-0.052
Mof_C 	C 	0.3631	0.436	0.0103	0.083
Mof_H 	H 	0.3366	0.4919	0.2552	0.083
Mof_H 	H 	0.2204	0.4556	0.008	0.171
Mof_C 	C 	0.2132	0.5312	0.036	0.315
Mof_C 	C 	0.246	0.5758	0.646	-0.195
Mof_H 	H 	0.2743	0.5288	0.3667	-0.034
Mof_H 	H 	0.3839	0.3311	0.6863	0.04
Mof_C 	C 	0.4238	0.3937	0.596	-0.058
Mof_C 	C 	0.3992	0.465	0.874	-0.125
Mof_C 	C 	0.2232	0.5751	0.894	-0.106
Mof_H 	H 	0.1979	0.5322	0.2046	-0.067
Mof_H 	H 	0.2525	0.6061	0.557	0.118
Mof_H 	H 	0.4437	0.3797	0.4603	0.042
Mof_C 	C 	0.4289	0.4443	0.6718	0.003
Mof_H 	H 	0.4036	0.499	0.9204	0.073
Mof_C 	C 	0.208	0.6253	0.027	0.492
Mof_H 	H 	0.4526	0.4646	0.5848	0.023
Mof_O 	O 	0.2004	0.6225	0.279	-0.296
Mof_O 	O 	0.1582	0.6259	0.038	-0.265
Mof_C 	C 	0.2006	0.4914	0.755	0.26
Mof_H 	H 	0.177	0.4653	0.7357	-0.047
Mof_C 	C 	0.1857	0.5374	0.871	-0.283
Mof_H 	H 	0.1526	0.5428	0.9304	0.161
Mof_C 	C 	0.2738	0.5711	0.809	0.233
Mof_H 	H 	0.2976	0.5971	0.826	-0.048
Mof_C 	C 	0.2845	0.5236	0.697	-0.325
Mof_H 	H 	0.3175	0.5178	0.6375	0.139
Mof_Zn	Zn	0.21545	0.7284	0.1176	1.222
Mof_O 	O 	0.2676	0.7757	0.983	-0.813
Mof_N 	N 	0.1462	0.7548	0.075	-0.299
Mof_O 	O 	0.2286	0.6624	0.935	-0.518
Mof_H 	H 	0.2786	0.7964	0.0951	0.317
Mof_C 	C 	0.1084	0.7406	0.923	0.134
Mof_C 	C 	0.1236	0.7931	0.2352	0.047
Mof_H 	H 	0.1126	0.7153	0.7945	-0.022
Mof_N 	N 	0.0627	0.7639	0.9567	-0.162
Mof_C 	C 	0.1452	0.8224	0.435	-0.138
Mof_C 	C 	0.0734	0.7995	0.155	0.062
Mof_C 	C 	0.0156	0.7496	0.832	0.16
Mof_H 	H 	0.1792	0.8185	0.4817	0.053
Mof_C 	C 	0.1149	0.858	0.5655	0.052
Mof_C 	C 	0.0424	0.8335	0.2882	-0.12
Mof_C 	C 	0.0141	0.7268	0.582	-0.197
Mof_C 	C 	0.9704	0.7589	0.965	0.047
Mof_C 	C 	0.1349	0.888	0.768	-0.094
Mof_C 	C 	0.064	0.8631	0.4897	0.039
Mof_H 	H 	0.0081	0.8366	0.2448	0.072
Mof_H 	H 	0.0444	0.7204	0.492	0.102
Mof_C 	C 	0.9688	0.7132	0.464	0.131
Mof_C 	C 	0.9242	0.746	0.854	-0.057
Mof_H 	H 	0.9712	0.7743	0.1333	0.014
Mof_H 	H 	0.1689	0.8839	0.8137	0.061
Mof_C 	C 	0.1063	0.9238	0.904	-0.013
Mof_C 	C 	0.035	0.8992	0.626	-0.084
Mof_C 	C 	0.9249	0.7232	0.606	-0.161
Mof_H 	H 	0.9678	0.6979	0.2954	0
Mof_H 	H 	0.8939	0.7525	0.943	0.069
Mof_H 	H 	0.1203	0.9437	0.0397	0.024
Mof_C 	C 	0.0557	0.9289	0.8282	-0.035
Mof_H 	H 	0.001	0.9036	0.5796	0.058
Mof_C 	C 	0.8747	0.708	0.473	0.551
Mof_H 	H 	0.0354	0.9526	0.9152	0.036
Mof_O 	O 	0.8775	0.7004	0.221	-0.305
Mof_O 	O 	0.8741	0.6582	0.462	-0.267
Mof_C 	C 	0.0086	0.7006	0.745	0.003
Mof_H 	H 	0.0347	0.677	0.7643	0.042
Mof_C 	C 	0.9626	0.6857	0.629	-0.052
Mof_H 	H 	0.9572	0.6526	0.5696	0.075
Mof_C 	C 	0.9289	0.7738	0.691	0.131
Mof_H 	H 	0.9029	0.7976	0.674	-0.016
Mof_C 	C 	0.9764	0.7845	0.803	-0.227
Mof_H 	H 	0.9822	0.8175	0.8625	0.107
Mof_Zn	Zn	0.71545	0.2284	0.6176	1.228
Mof_O 	O 	0.7676	0.2757	0.483	-0.839
Mof_N 	N 	0.6462	0.2548	0.575	-0.284
Mof_O 	O 	0.7286	0.1624	0.435	-0.549
Mof_H 	H 	0.7786	0.2964	0.5951	0.335
Mof_C 	C 	0.6084	0.2406	0.423	0.109
Mof_C 	C 	0.6236	0.2931	0.7352	0.028
Mof_H 	H 	0.6126	0.2153	0.2945	-0.016
Mof_N 	N 	0.5627	0.2639	0.4567	-0.163
Mof_C 	C 	0.6452	0.3224	0.935	-0.097
Mof_C 	C 	0.5734	0.2995	0.655	0.088
Mof_C 	C 	0.5156	0.2496	0.332	0.135
Mof_H 	H 	0.6792	0.3185	0.9817	0.042
Mof_C 	C 	0.6149	0.358	0.0655	0.001
Mof_C 	C 	0.5424	0.3335	0.7882	-0.149
Mof_C 	C 	0.5141	0.2268	0.082	-0.411
Mof_C 	C 	0.4704	0.2589	0.465	0.177
Mof_C 	C 	0.6349	0.388	0.268	-0.052
Mof_C 	C 	0.564	0.3631	0.9897	0.083
Mof_H 	H 	0.5081	0.3366	0.7448	0.083
Mof_H 	H 	0.5444	0.2204	0.992	0.171
Mof_C 	C 	0.4688	0.2132	0.964	0.315
Mof_C 	C 	0.4242	0.246	0.354	-0.195
Mof_H 	H 	0.4712	0.2743	0.6333	-0.034
Mof_H 	H 	0.6689	0.3839	0.3137	0.04
Mof_C 	C 	0.6063	0.4238	0.404	-0.058
Mof_C 	C 	0.535	0.3992	0.126	-0.125
Mof_C 	C 	0.4249	0.2232	0.106	-0.106
Mof_H 	H 	0.4678	0.1979	0.7954	-0.067
Mof_H 	H 	0.3939	0.2525	0.443	0.118
Mof_H 	H 	0.6203	0.4437	0.5397	0.042
Mof_C 	C 	0.5557	0.4289	0.3282	0.003
Mof_H 	H 	0.501	0.4036	0.0796	0.073
Mof_C 	C 	0.3747	0.208	0.973	0.492
Mof_H 	H 	0.5354	0.4526	0.4152	0.023
Mof_O 	O 	0.3775	0.2004	0.721	-0.296
Mof_O 	O 	0.3741	0.1582	0.962	-0.265
Mof_C 	C 	0.5086	0.2006	0.245	0.26
Mof_H 	H 	0.5347	0.177	0.2643	-0.047
Mof_C 	C 	0.4626	0.1857	0.129	-0.283
Mof_H 	H 	0.4572	0.1526	0.0696	0.161
Mof_C 	C 	0.4289	0.2738	0.191	0.233
Mof_H 	H 	0.4029	0.2976	0.174	-0.048
Mof_C 	C 	0.4764	0.2845	0.303	-0.325
Mof_H 	H 	0.4822	0.3175	0.3625	0.139
Mof_Zn	Zn	0.78455	0.2716	0.1176	1.222
Mof_O 	O 	0.7324	0.2243	0.983	-0.813
Mof_N 	N 	0.8538	0.2452	0.075	-0.299
Mof_O 	O 	0.7714	0.3376	0.935	-0.518
Mof_H 	H 	0.7214	0.2036	0.0951	0.317
Mof_C 	C 	0.8916	0.2594	0.923	0.134
Mof_C 	C 	0.8764	0.2069	0.2352	0.047
Mof_H 	H 	0.8874	0.2847	0.7945	-0.022
Mof_N 	N 	0.9373	0.2361	0.9567	-0.162
Mof_C 	C 	0.8548	0.1776	0.435	-0.138
Mof_C 	C 	0.9266	0.2005	0.155	0.062
Mof_C 	C 	0.9844	0.2504	0.832	0.16
Mof_H 	H 	0.8208	0.1815	0.4817	0.053
Mof_C 	C 	0.8851	0.142	0.5655	0.052
Mof_C 	C 	0.9576	0.1665	0.2882	-0.12
Mof_C 	C 	0.9859	0.2732	0.582	-0.197
Mof_C 	C 	0.0296	0.2411	0.965	0.047
Mof_C 	C 	0.8651	0.112	0.768	-0.094
Mof_C 	C 	0.936	0.1369	0.4897	0.039
Mof_H 	H 	0.9919	0.1634	0.2448	0.072
Mof_H 	H 	0.9556	0.2796	0.492	0.102
Mof_C 	C 	0.0312	0.2868	0.464	0.131
Mof_C 	C 	0.0758	0.254	0.854	-0.057
Mof_H 	H 	0.0288	0.2257	0.1333	0.014
Mof_H 	H 	0.8311	0.1161	0.8137	0.061
Mof_C 	C 	0.8937	0.0762	0.904	-0.013
Mof_C 	C 	0.965	0.1008	0.626	-0.084
Mof_C 	C 	0.0751	0.2768	0.606	-0.161
Mof_H 	H 	0.0322	0.3021	0.2954	0
Mof_H 	H 	0.1061	0.2475	0.943	0.069
Mof_H 	H 	0.8797	0.0563	0.0397	0.024
Mof_C 	C 	0.9443	0.0711	0.8282	-0.035
Mof_H 	H 	0.999	0.0964	0.5796	0.058
Mof_C 	C 	0.1253	0.292	0.473	0.551
Mof_H 	H 	0.9646	0.0474	0.9152	0.036
Mof_O 	O 	0.1225	0.2996	0.221	-0.305
Mof_O 	O 	0.1259	0.3418	0.462	-0.267
Mof_C 	C 	0.9914	0.2994	0.745	0.003
Mof_H 	H 	0.9653	0.323	0.7643	0.042
Mof_C 	C 	0.0374	0.3143	0.629	-0.052
Mof_H 	H 	0.0428	0.3474	0.5696	0.075
Mof_C 	C 	0.0711	0.2262	0.691	0.131
Mof_H 	H 	0.0971	0.2024	0.674	-0.016
Mof_C 	C 	0.0236	0.2155	0.803	-0.227
Mof_H 	H 	0.0178	0.1825	0.8625	0.107
Mof_Zn	Zn	0.28455	0.7716	0.6176	1.228
Mof_O 	O 	0.2324	0.7243	0.483	-0.839
Mof_N 	N 	0.3538	0.7452	0.575	-0.284
Mof_O 	O 	0.2714	0.8376	0.435	-0.549
Mof_H 	H 	0.2214	0.7036	0.5951	0.335
Mof_C 	C 	0.3916	0.7594	0.423	0.109
Mof_C 	C 	0.3764	0.7069	0.7352	0.028
Mof_H 	H 	0.3874	0.7847	0.2945	-0.016
Mof_N 	N 	0.4373	0.7361	0.4567	-0.163
Mof_C 	C 	0.3548	0.6776	0.935	-0.097
Mof_C 	C 	0.4266	0.7005	0.655	0.088
Mof_C 	C 	0.4844	0.7504	0.332	0.135
Mof_H 	H 	0.3208	0.6815	0.9817	0.042
Mof_C 	C 	0.3851	0.642	0.0655	0.001
Mof_C 	C 	0.4576	0.6665	0.7882	-0.149
Mof_C 	C 	0.4859	0.7732	0.082	-0.411
Mof_C 	C 	0.5296	0.7411	0.465	0.177
Mof_C 	C 	0.3651	0.612	0.268	-0.052
Mof_C 	C 	0.436	0.6369	0.9897	0.083
Mof_H 	H 	0.4919	0.6634	0.7448	0.083
Mof_H 	H 	0.4556	0.7796	0.992	0.171
Mof_C 	C 	0.5312	0.7868	0.964	0.315
Mof_C 	C 	0.5758	0.754	0.354	-0.195
Mof_H 	H 	0.5288	0.7257	0.6333	-0.034
Mof_H 	H 	0.3311	0.6161	0.3137	0.04
Mof_C 	C 	0.3937	0.5762	0.404	-0.058
Mof_C 	C 	0.465	0.6008	0.126	-0.125
Mof_C 	C 	0.5751	0.7768	0.106	-0.106
Mof_H 	H 	0.5322	0.8021	0.7954	-0.067
Mof_H 	H 	0.6061	0.7475	0.443	0.118
Mof_H 	H 	0.3797	0.5563	0.5397	0.042
Mof_C 	C 	0.4443	0.5711	0.3282	0.003
Mof_H 	H 	0.499	0.5964	0.0796	0.073
Mof_C 	C 	0.6253	0.792	0.973	0.492
Mof_H 	H 	0.4646	0.5474	0.4152	0.023
Mof_O 	O 	0.6225	0.7996	0.721	-0.296
Mof_O 	O 	0.6259	0.8418	0.962	-0.265
Mof_C 	C 	0.4914	0.7994	0.245	0.26
Mof_H 	H 	0.4653	0.823	0.2643	-0.047
Mof_C 	C 	0.5374	0.8143	0.129	-0.283
Mof_H 	H 	0.5428	0.8474	0.0696	0.161
Mof_C 	C 	0.5711	0.7262	0.191	0.233
Mof_H 	H 	0.5971	0.7024	0.174	-0.048
Mof_C 	C 	0.5236	0.7155	0.303	-0.325
Mof_H 	H 	0.5178	0.6825	0.3625	0.139
_end
