# CIF file generated by openbabel 3.1.0, see https://openbabel.org
data_I
_chemical_name_common 'image0'
_cell_length_a 19.0983
_cell_length_b 14.4221
_cell_length_c 30.556
_cell_angle_alpha 90
_cell_angle_beta 90
_cell_angle_gamma 90
_space_group_name_H-M_alt 'P 1'
_space_group_name_Hall 'P 1'
loop_
    _symmetry_equiv_pos_as_xyz
    x,y,z
loop_
    _atom_site_label
    _atom_site_type_symbol
    _atom_site_fract_x
    _atom_site_fract_y
    _atom_site_fract_z
    _atom_site_occupancy
    Er1      Er       0.14126    0.46220    0.74751    1.000
    O1       O        0.12024    0.34040    0.69900    1.000
    O2       O        0.16780    0.61670    0.73385    1.000
    O3       O        0.08212    0.55310    0.80315    1.000
    O4       O        0.19060    0.50820    0.81640    1.000
    O5       O        0.73660    0.02980    0.70156    1.000
    O6       O        0.52714    0.00170    0.72169    1.000
    C1       C        0.13550    0.31710    0.66020    1.000
    C2       C        0.19360    0.67060    0.70770    1.000
    C3       C        0.13510    0.55640    0.82700    1.000
    Er2      Er       0.18785    0.52419    0.62327    1.000
    O7       O        0.16590    0.36890    0.63210    1.000
    C4       C        0.11650    0.21990    0.64580    1.000
    O8       O        0.20850    0.65030    0.66744    1.000
    C5       C        0.21190    0.76770    0.72300    1.000
    C6       C        0.13850    0.61700    0.86590    1.000
    O9       O        0.33900    0.96700    0.05599    1.000
    O10      O        0.80270    0.02100    0.64316    1.000
    C7       C        0.11840    0.19720    0.60210    1.000
    C8       C        0.09540    0.15060    0.67620    1.000
    C9       C        0.20350    0.78640    0.76640    1.000
    C10      C        0.23290    0.83940    0.69270    1.000
    C11      C        0.08180    0.67450    0.87380    1.000
    C12      C        0.19900    0.62110    0.89420    1.000
    C13      C        0.36230    0.99520    0.01910    1.000
    H1       H        0.13020    0.24290    0.58200    1.000
    C14      C        0.10340    0.11000    0.58720    1.000
    O11      O        0.09040    0.16900    0.71935    1.000
    C15      C        0.07970    0.06200    0.66190    1.000
    H2       H        0.18870    0.73990    0.78540    1.000
    C16      C        0.21750    0.87780    0.78300    1.000
    O12      O        0.23910    0.82220    0.64908    1.000
    C17      C        0.24750    0.92820    0.70740    1.000
    H3       H        0.04380    0.67470    0.85490    1.000
    C18      C        0.08230    0.73370    0.91160    1.000
    C19      C        0.20360    0.68360    0.92810    1.000
    O13      O        0.25220    0.56150    0.88661    1.000
    O14      O        0.38890    0.07070    0.01329    1.000
    C20      C        0.35240    0.92940    0.98100    1.000
    C21      C        0.10720    0.08920    0.54180    1.000
    C22      C        0.08570    0.03910    0.61770    1.000
    H4       H        0.09750    0.22440    0.72360    1.000
    C23      C        0.05930    0.99000    0.69690    1.000
    C24      C        0.20780    0.89660    0.82700    1.000
    C25      C        0.23770    0.94860    0.75340    1.000
    H5       H        0.25060    0.76810    0.64530    1.000
    C26      C        0.26650    0.00050    0.67390    1.000
    C27      C        0.14390    0.73860    0.93780    1.000
    C28      C        0.02380    0.78700    0.92200    1.000
    C29      C        0.27040    0.69240    0.95480    1.000
    H6       H        0.24170    0.52700    0.86630    1.000
    C30      C        0.37910    0.95550    0.94130    1.000
    C31      C        0.31870    0.84200    0.98520    1.000
    H7       H        0.11720    0.13640    0.52200    1.000
    C32      C        0.09670    0.00320    0.52700    1.000
    C33      C        0.07570    0.94840    0.60040    1.000
    H8       H        0.06020    0.92930    0.68320    1.000
    H9       H        0.09530    0.99030    0.71930    1.000
    C34      C        0.98930    0.00130    0.71920    1.000
    H10      H        0.19530    0.84900    0.84600    1.000
    C35      C        0.21640    0.98490    0.84270    1.000
    C36      C        0.24520    0.03920    0.77130    1.000
    H11      H        0.26570    0.06030    0.68840    1.000
    H12      H        0.22970    0.00120    0.65210    1.000
    C37      C        0.33650    0.99240    0.64970    1.000
    C38      C        0.14100    0.79730    0.97510    1.000
    C39      C        0.02400    0.84400    0.95770    1.000
    H13      H        0.98410    0.78390    0.90440    1.000
    C40      C        0.31090    0.78340    0.94880    1.000
    H14      H        0.25860    0.68590    0.98550    1.000
    H15      H        0.30120    0.64140    0.94720    1.000
    H16      H        0.40100    0.01280    0.93870    1.000
    C41      C        0.37410    0.89710    0.90400    1.000
    O15      O        0.29260    0.81450    0.02424    1.000
    H17      H        0.09860    0.99080    0.49710    1.000
    C42      C        0.08240    0.93030    0.55750    1.000
    H18      H        0.06420    0.90030    0.61930    1.000
    C43      C        0.98110    0.99420    0.76510    1.000
    C44      C        0.92910    0.00850    0.69250    1.000
    H19      H        0.21050    0.99780    0.87230    1.000
    C45      C        0.23430    0.05530    0.81320    1.000
    H20      H        0.25800    0.08800    0.75310    1.000
    C46      C        0.34210    0.99510    0.60420    1.000
    C47      C        0.39810    0.99170    0.67400    1.000
    C48      C        0.08070    0.84800    0.98430    1.000
    H21      H        0.17970    0.80190    0.99340    1.000
    H22      H        0.98490    0.88020    0.96390    1.000
    C49      C        0.33970    0.81020    0.90870    1.000
    C50      C        0.40290    0.92260    0.86310    1.000
    H23      H        0.28380    0.86020    0.03920    1.000
    H24      H        0.07770    0.86980    0.54760    1.000
    C51      C        0.03810    0.98290    0.79390    1.000
    C52      C        0.91290    0.99910    0.78340    1.000
    O16      O        0.93610    0.00690    0.64921    1.000
    C53      C        0.86050    0.01730    0.71230    1.000
    H25      H        0.23870    0.11560    0.82360    1.000
    C54      C        0.28310    0.99850    0.57490    1.000
    C55      C        0.40880    0.99880    0.58330    1.000
    O17      O        0.39151    0.99410    0.71860    1.000
    C56      C        0.46450    0.99040    0.65430    1.000
    H26      H        0.07940    0.88530    0.00910    1.000
    C57      C        0.33990    0.75140    0.87100    1.000
    H27      H        0.42510    0.97970    0.86040    1.000
    C58      C        0.39900    0.86700    0.82820    1.000
    H28      H        0.08350    0.98020    0.78310    1.000
    C59      C        0.02640    0.97600    0.83800    1.000
    C60      C        0.90500    0.99160    0.82990    1.000
    C61      C        0.85410    0.01010    0.75570    1.000
    H29      H        0.89740    0.01070    0.63770    1.000
    C62      C        0.79800    0.02480    0.68490    1.000
    H30      H        0.23830    0.99290    0.58660    1.000
    C63      C        0.28990    0.00930    0.53170    1.000
    C64      C        0.41440    0.00670    0.53820    1.000
    C65      C        0.46850    0.99410    0.60970    1.000
    H31      H        0.43040    0.99950    0.72970    1.000
    C66      C        0.53030    0.99000    0.68100    1.000
    C67      C        0.36830    0.78070    0.83290    1.000
    H32      H        0.32040    0.69240    0.87270    1.000
    H33      H        0.41660    0.88590    0.80120    1.000
    H34      H        0.06470    0.96870    0.85640    1.000
    C68      C        0.96020    0.97950    0.85630    1.000
    H35      H        0.86040    0.99520    0.84200    1.000
    H36      H        0.80960    0.01250    0.76810    1.000
    H37      H        0.24970    0.01340    0.51460    1.000
    C69      C        0.35610    0.01460    0.51090    1.000
    H38      H        0.45870    0.00690    0.52560    1.000
    H39      H        0.51230    0.99340    0.59650    1.000
    O18      O        0.58852    0.97890    0.66244    1.000
    H40      H        0.36710    0.74120    0.80880    1.000
    H41      H        0.95420    0.97350    0.88640    1.000
    H42      H        0.36040    0.02280    0.48080    1.000
    Er3      Er       0.85874    0.53780    0.24751    1.000
    O19      O        0.87976    0.65960    0.19900    1.000
    O20      O        0.83220    0.38330    0.23385    1.000
    O21      O        0.91788    0.44690    0.30315    1.000
    O22      O        0.80940    0.49180    0.31640    1.000
    O23      O        0.26340    0.97020    0.20156    1.000
    O24      O        0.47286    0.99830    0.22169    1.000
    C70      C        0.86450    0.68290    0.16020    1.000
    C71      C        0.80640    0.32940    0.20770    1.000
    C72      C        0.86490    0.44360    0.32700    1.000
    Er4      Er       0.81215    0.47581    0.12327    1.000
    O25      O        0.83410    0.63110    0.13210    1.000
    C73      C        0.88350    0.78010    0.14580    1.000
    O26      O        0.79150    0.34970    0.16744    1.000
    C74      C        0.78810    0.23230    0.22300    1.000
    C75      C        0.86150    0.38300    0.36590    1.000
    O27      O        0.66100    0.03300    0.55599    1.000
    O28      O        0.19730    0.97900    0.14316    1.000
    C76      C        0.88160    0.80280    0.10210    1.000
    C77      C        0.90460    0.84940    0.17620    1.000
    C78      C        0.79650    0.21360    0.26640    1.000
    C79      C        0.76710    0.16060    0.19270    1.000
    C80      C        0.91820    0.32550    0.37380    1.000
    C81      C        0.80100    0.37890    0.39420    1.000
    C82      C        0.63770    0.00480    0.51910    1.000
    H43      H        0.86980    0.75710    0.08200    1.000
    C83      C        0.89660    0.89000    0.08720    1.000
    O29      O        0.90960    0.83100    0.21935    1.000
    C84      C        0.92030    0.93800    0.16190    1.000
    H44      H        0.81130    0.26010    0.28540    1.000
    C85      C        0.78250    0.12220    0.28300    1.000
    O30      O        0.76090    0.17780    0.14908    1.000
    C86      C        0.75250    0.07180    0.20740    1.000
    H45      H        0.95620    0.32530    0.35490    1.000
    C87      C        0.91770    0.26630    0.41160    1.000
    C88      C        0.79640    0.31640    0.42810    1.000
    O31      O        0.74780    0.43850    0.38661    1.000
    O32      O        0.61110    0.92930    0.51329    1.000
    C89      C        0.64760    0.07060    0.48100    1.000
    C90      C        0.89280    0.91080    0.04180    1.000
    C91      C        0.91430    0.96090    0.11770    1.000
    H46      H        0.90250    0.77560    0.22360    1.000
    C92      C        0.94070    0.01000    0.19690    1.000
    C93      C        0.79220    0.10340    0.32700    1.000
    C94      C        0.76230    0.05140    0.25340    1.000
    H47      H        0.74940    0.23190    0.14530    1.000
    C95      C        0.73350    0.99950    0.17390    1.000
    C96      C        0.85610    0.26140    0.43780    1.000
    C97      C        0.97620    0.21300    0.42200    1.000
    C98      C        0.72960    0.30760    0.45480    1.000
    H48      H        0.75830    0.47300    0.36630    1.000
    C99      C        0.62090    0.04450    0.44130    1.000
    C100     C        0.68130    0.15800    0.48520    1.000
    H49      H        0.88280    0.86360    0.02200    1.000
    C101     C        0.90330    0.99680    0.02700    1.000
    C102     C        0.92430    0.05160    0.10040    1.000
    H50      H        0.93980    0.07070    0.18320    1.000
    H51      H        0.90470    0.00970    0.21930    1.000
    C103     C        0.01070    0.99870    0.21920    1.000
    H52      H        0.80470    0.15100    0.34600    1.000
    C104     C        0.78360    0.01510    0.34270    1.000
    C105     C        0.75480    0.96080    0.27130    1.000
    H53      H        0.73430    0.93970    0.18840    1.000
    H54      H        0.77030    0.99880    0.15210    1.000
    C106     C        0.66350    0.00760    0.14970    1.000
    C107     C        0.85900    0.20270    0.47510    1.000
    C108     C        0.97600    0.15600    0.45770    1.000
    H55      H        0.01590    0.21610    0.40440    1.000
    C109     C        0.68910    0.21660    0.44880    1.000
    H56      H        0.74140    0.31410    0.48550    1.000
    H57      H        0.69880    0.35860    0.44720    1.000
    H58      H        0.59900    0.98720    0.43870    1.000
    C110     C        0.62590    0.10290    0.40400    1.000
    O33      O        0.70740    0.18550    0.52424    1.000
    H59      H        0.90140    0.00920    0.99710    1.000
    C111     C        0.91760    0.06970    0.05750    1.000
    H60      H        0.93580    0.09970    0.11930    1.000
    C112     C        0.01890    0.00580    0.26510    1.000
    C113     C        0.07090    0.99150    0.19250    1.000
    H61      H        0.78950    0.00220    0.37230    1.000
    C114     C        0.76570    0.94470    0.31320    1.000
    H62      H        0.74200    0.91200    0.25310    1.000
    C115     C        0.65790    0.00490    0.10420    1.000
    C116     C        0.60190    0.00830    0.17400    1.000
    C117     C        0.91930    0.15200    0.48430    1.000
    H63      H        0.82030    0.19810    0.49340    1.000
    H64      H        0.01510    0.11980    0.46390    1.000
    C118     C        0.66030    0.18980    0.40870    1.000
    C119     C        0.59710    0.07740    0.36310    1.000
    H65      H        0.71620    0.13980    0.53920    1.000
    H66      H        0.92230    0.13020    0.04760    1.000
    C120     C        0.96190    0.01710    0.29390    1.000
    C121     C        0.08710    0.00090    0.28340    1.000
    O34      O        0.06390    0.99310    0.14921    1.000
    C122     C        0.13950    0.98270    0.21230    1.000
    H67      H        0.76130    0.88440    0.32360    1.000
    C123     C        0.71690    0.00150    0.07490    1.000
    C124     C        0.59120    0.00120    0.08330    1.000
    O35      O        0.60849    0.00590    0.21860    1.000
    C125     C        0.53550    0.00960    0.15430    1.000
    H68      H        0.92060    0.11470    0.50910    1.000
    C126     C        0.66010    0.24860    0.37100    1.000
    H69      H        0.57490    0.02030    0.36040    1.000
    C127     C        0.60100    0.13300    0.32820    1.000
    H70      H        0.91650    0.01980    0.28310    1.000
    C128     C        0.97360    0.02400    0.33800    1.000
    C129     C        0.09500    0.00840    0.32990    1.000
    C130     C        0.14590    0.98990    0.25570    1.000
    H71      H        0.10260    0.98930    0.13770    1.000
    C131     C        0.20200    0.97520    0.18490    1.000
    H72      H        0.76170    0.00710    0.08660    1.000
    C132     C        0.71010    0.99070    0.03170    1.000
    C133     C        0.58560    0.99330    0.03820    1.000
    C134     C        0.53150    0.00590    0.10970    1.000
    H73      H        0.56960    0.00050    0.22970    1.000
    C135     C        0.46970    0.01000    0.18100    1.000
    C136     C        0.63170    0.21930    0.33290    1.000
    H74      H        0.67960    0.30760    0.37270    1.000
    H75      H        0.58340    0.11410    0.30120    1.000
    H76      H        0.93530    0.03130    0.35640    1.000
    C137     C        0.03980    0.02050    0.35630    1.000
    H77      H        0.13960    0.00480    0.34200    1.000
    H78      H        0.19040    0.98750    0.26810    1.000
    H79      H        0.75030    0.98660    0.01460    1.000
    C138     C        0.64390    0.98540    0.01090    1.000
    H80      H        0.54130    0.99310    0.02560    1.000
    H81      H        0.48770    0.00660    0.09650    1.000
    O36      O        0.41148    0.02110    0.16244    1.000
    H82      H        0.63290    0.25880    0.30880    1.000
    H83      H        0.04580    0.02650    0.38640    1.000
    H84      H        0.63960    0.97720    0.98080    1.000
    Er5      Er       0.64126    0.03780    0.74751    1.000
    O37      O        0.62024    0.15960    0.69900    1.000
    O38      O        0.66780    0.88330    0.73385    1.000
    O39      O        0.58212    0.94690    0.80315    1.000
    O40      O        0.69060    0.99180    0.81640    1.000
    O41      O        0.23660    0.47020    0.70156    1.000
    O42      O        0.02714    0.49830    0.72169    1.000
    C139     C        0.63550    0.18290    0.66020    1.000
    C140     C        0.69360    0.82940    0.70770    1.000
    C141     C        0.63510    0.94360    0.82700    1.000
    Er6      Er       0.68785    0.97581    0.62327    1.000
    O43      O        0.66590    0.13110    0.63210    1.000
    C142     C        0.61650    0.28010    0.64580    1.000
    O44      O        0.70850    0.84970    0.66744    1.000
    C143     C        0.71190    0.73230    0.72300    1.000
    C144     C        0.63850    0.88300    0.86590    1.000
    O45      O        0.83900    0.53300    0.05599    1.000
    O46      O        0.30270    0.47900    0.64316    1.000
    C145     C        0.61840    0.30280    0.60210    1.000
    C146     C        0.59540    0.34940    0.67620    1.000
    C147     C        0.70350    0.71360    0.76640    1.000
    C148     C        0.73290    0.66060    0.69270    1.000
    C149     C        0.58180    0.82550    0.87380    1.000
    C150     C        0.69900    0.87890    0.89420    1.000
    C151     C        0.86230    0.50480    0.01910    1.000
    H85      H        0.63020    0.25710    0.58200    1.000
    C152     C        0.60340    0.39000    0.58720    1.000
    O47      O        0.59040    0.33100    0.71935    1.000
    C153     C        0.57970    0.43800    0.66190    1.000
    H86      H        0.68870    0.76010    0.78540    1.000
    C154     C        0.71750    0.62220    0.78300    1.000
    O48      O        0.73910    0.67780    0.64908    1.000
    C155     C        0.74750    0.57180    0.70740    1.000
    H87      H        0.54380    0.82530    0.85490    1.000
    C156     C        0.58230    0.76630    0.91160    1.000
    C157     C        0.70360    0.81640    0.92810    1.000
    O49      O        0.75220    0.93850    0.88661    1.000
    O50      O        0.88890    0.42930    0.01329    1.000
    C158     C        0.85240    0.57060    0.98100    1.000
    C159     C        0.60720    0.41080    0.54180    1.000
    C160     C        0.58570    0.46090    0.61770    1.000
    H88      H        0.59750    0.27560    0.72360    1.000
    C161     C        0.55930    0.51000    0.69690    1.000
    C162     C        0.70780    0.60340    0.82700    1.000
    C163     C        0.73770    0.55140    0.75340    1.000
    H89      H        0.75060    0.73190    0.64530    1.000
    C164     C        0.76650    0.49950    0.67390    1.000
    C165     C        0.64390    0.76140    0.93780    1.000
    C166     C        0.52380    0.71300    0.92200    1.000
    C167     C        0.77040    0.80760    0.95480    1.000
    H90      H        0.74170    0.97300    0.86630    1.000
    C168     C        0.87910    0.54450    0.94130    1.000
    C169     C        0.81870    0.65800    0.98520    1.000
    H91      H        0.61720    0.36360    0.52200    1.000
    C170     C        0.59670    0.49680    0.52700    1.000
    C171     C        0.57570    0.55160    0.60040    1.000
    H92      H        0.56020    0.57070    0.68320    1.000
    H93      H        0.59530    0.50970    0.71930    1.000
    C172     C        0.48930    0.49870    0.71920    1.000
    H94      H        0.69530    0.65100    0.84600    1.000
    C173     C        0.71640    0.51510    0.84270    1.000
    C174     C        0.74520    0.46080    0.77130    1.000
    H95      H        0.76570    0.43970    0.68840    1.000
    H96      H        0.72970    0.49880    0.65210    1.000
    C175     C        0.83650    0.50760    0.64970    1.000
    C176     C        0.64100    0.70270    0.97510    1.000
    C177     C        0.52400    0.65600    0.95770    1.000
    H97      H        0.48410    0.71610    0.90440    1.000
    C178     C        0.81090    0.71660    0.94880    1.000
    H98      H        0.75860    0.81410    0.98550    1.000
    H99      H        0.80120    0.85860    0.94720    1.000
    H100     H        0.90100    0.48720    0.93870    1.000
    C179     C        0.87410    0.60290    0.90400    1.000
    O51      O        0.79260    0.68550    0.02424    1.000
    H101     H        0.59860    0.50920    0.49710    1.000
    C180     C        0.58240    0.56970    0.55750    1.000
    H102     H        0.56420    0.59970    0.61930    1.000
    C181     C        0.48110    0.50580    0.76510    1.000
    C182     C        0.42910    0.49150    0.69250    1.000
    H103     H        0.71050    0.50220    0.87230    1.000
    C183     C        0.73430    0.44470    0.81320    1.000
    H104     H        0.75800    0.41200    0.75310    1.000
    C184     C        0.84210    0.50490    0.60420    1.000
    C185     C        0.89810    0.50830    0.67400    1.000
    C186     C        0.58070    0.65200    0.98430    1.000
    H105     H        0.67970    0.69810    0.99340    1.000
    H106     H        0.48490    0.61980    0.96390    1.000
    C187     C        0.83970    0.68980    0.90870    1.000
    C188     C        0.90290    0.57740    0.86310    1.000
    H107     H        0.78380    0.63980    0.03920    1.000
    H108     H        0.57770    0.63020    0.54760    1.000
    C189     C        0.53810    0.51710    0.79390    1.000
    C190     C        0.41290    0.50090    0.78340    1.000
    O52      O        0.43610    0.49310    0.64921    1.000
    C191     C        0.36050    0.48270    0.71230    1.000
    H109     H        0.73870    0.38440    0.82360    1.000
    C192     C        0.78310    0.50150    0.57490    1.000
    C193     C        0.90880    0.50120    0.58330    1.000
    O53      O        0.89151    0.50590    0.71860    1.000
    C194     C        0.96450    0.50960    0.65430    1.000
    H110     H        0.57940    0.61470    0.00910    1.000
    C195     C        0.83990    0.74860    0.87100    1.000
    H111     H        0.92510    0.52030    0.86040    1.000
    C196     C        0.89900    0.63300    0.82820    1.000
    H112     H        0.58350    0.51980    0.78310    1.000
    C197     C        0.52640    0.52400    0.83800    1.000
    C198     C        0.40500    0.50840    0.82990    1.000
    C199     C        0.35410    0.48990    0.75570    1.000
    H113     H        0.39740    0.48930    0.63770    1.000
    C200     C        0.29800    0.47520    0.68490    1.000
    H114     H        0.73830    0.50710    0.58660    1.000
    C201     C        0.78990    0.49070    0.53170    1.000
    C202     C        0.91440    0.49330    0.53820    1.000
    C203     C        0.96850    0.50590    0.60970    1.000
    H115     H        0.93040    0.50050    0.72970    1.000
    C204     C        0.03030    0.51000    0.68100    1.000
    C205     C        0.86830    0.71930    0.83290    1.000
    H116     H        0.82040    0.80760    0.87270    1.000
    H117     H        0.91660    0.61410    0.80120    1.000
    H118     H        0.56470    0.53130    0.85640    1.000
    C206     C        0.46020    0.52050    0.85630    1.000
    H119     H        0.36040    0.50480    0.84200    1.000
    H120     H        0.30960    0.48750    0.76810    1.000
    H121     H        0.74970    0.48660    0.51460    1.000
    C207     C        0.85610    0.48540    0.51090    1.000
    H122     H        0.95870    0.49310    0.52560    1.000
    H123     H        0.01230    0.50660    0.59650    1.000
    O54      O        0.08852    0.52110    0.66244    1.000
    H124     H        0.86710    0.75880    0.80880    1.000
    H125     H        0.45420    0.52650    0.88640    1.000
    H126     H        0.86040    0.47720    0.48080    1.000
    Er7      Er       0.35874    0.96220    0.24751    1.000
    O55      O        0.37976    0.84040    0.19900    1.000
    O56      O        0.33220    0.11670    0.23385    1.000
    O57      O        0.41788    0.05310    0.30315    1.000
    O58      O        0.30940    0.00820    0.31640    1.000
    O59      O        0.76340    0.52980    0.20156    1.000
    O60      O        0.97286    0.50170    0.22169    1.000
    C208     C        0.36450    0.81710    0.16020    1.000
    C209     C        0.30640    0.17060    0.20770    1.000
    C210     C        0.36490    0.05640    0.32700    1.000
    Er8      Er       0.31215    0.02419    0.12327    1.000
    O61      O        0.33410    0.86890    0.13210    1.000
    C211     C        0.38350    0.71990    0.14580    1.000
    O62      O        0.29150    0.15030    0.16744    1.000
    C212     C        0.28810    0.26770    0.22300    1.000
    C213     C        0.36150    0.11700    0.36590    1.000
    O63      O        0.16100    0.46700    0.55599    1.000
    O64      O        0.69730    0.52100    0.14316    1.000
    C214     C        0.38160    0.69720    0.10210    1.000
    C215     C        0.40460    0.65060    0.17620    1.000
    C216     C        0.29650    0.28640    0.26640    1.000
    C217     C        0.26710    0.33940    0.19270    1.000
    C218     C        0.41820    0.17450    0.37380    1.000
    C219     C        0.30100    0.12110    0.39420    1.000
    C220     C        0.13770    0.49520    0.51910    1.000
    H127     H        0.36980    0.74290    0.08200    1.000
    C221     C        0.39660    0.61000    0.08720    1.000
    O65      O        0.40960    0.66900    0.21935    1.000
    C222     C        0.42030    0.56200    0.16190    1.000
    H128     H        0.31130    0.23990    0.28540    1.000
    C223     C        0.28250    0.37780    0.28300    1.000
    O66      O        0.26090    0.32220    0.14908    1.000
    C224     C        0.25250    0.42820    0.20740    1.000
    H129     H        0.45620    0.17470    0.35490    1.000
    C225     C        0.41770    0.23370    0.41160    1.000
    C226     C        0.29640    0.18360    0.42810    1.000
    O67      O        0.24780    0.06150    0.38661    1.000
    O68      O        0.11110    0.57070    0.51329    1.000
    C227     C        0.14760    0.42940    0.48100    1.000
    C228     C        0.39280    0.58920    0.04180    1.000
    C229     C        0.41430    0.53910    0.11770    1.000
    H130     H        0.40250    0.72440    0.22360    1.000
    C230     C        0.44070    0.49000    0.19690    1.000
    C231     C        0.29220    0.39660    0.32700    1.000
    C232     C        0.26230    0.44860    0.25340    1.000
    H131     H        0.24940    0.26810    0.14530    1.000
    C233     C        0.23350    0.50050    0.17390    1.000
    C234     C        0.35610    0.23860    0.43780    1.000
    C235     C        0.47620    0.28700    0.42200    1.000
    C236     C        0.22960    0.19240    0.45480    1.000
    H132     H        0.25830    0.02700    0.36630    1.000
    C237     C        0.12090    0.45550    0.44130    1.000
    C238     C        0.18130    0.34200    0.48520    1.000
    H133     H        0.38280    0.63640    0.02200    1.000
    C239     C        0.40330    0.50320    0.02700    1.000
    C240     C        0.42430    0.44840    0.10040    1.000
    H134     H        0.43980    0.42930    0.18320    1.000
    H135     H        0.40470    0.49030    0.21930    1.000
    C241     C        0.51070    0.50130    0.21920    1.000
    H136     H        0.30470    0.34900    0.34600    1.000
    C242     C        0.28360    0.48490    0.34270    1.000
    C243     C        0.25480    0.53920    0.27130    1.000
    H137     H        0.23430    0.56030    0.18840    1.000
    H138     H        0.27030    0.50120    0.15210    1.000
    C244     C        0.16350    0.49240    0.14970    1.000
    C245     C        0.35900    0.29730    0.47510    1.000
    C246     C        0.47600    0.34400    0.45770    1.000
    H139     H        0.51590    0.28390    0.40440    1.000
    C247     C        0.18910    0.28340    0.44880    1.000
    H140     H        0.24140    0.18590    0.48550    1.000
    H141     H        0.19880    0.14140    0.44720    1.000
    H142     H        0.09900    0.51280    0.43870    1.000
    C248     C        0.12590    0.39710    0.40400    1.000
    O69      O        0.20740    0.31450    0.52424    1.000
    H143     H        0.40140    0.49080    0.99710    1.000
    C249     C        0.41760    0.43030    0.05750    1.000
    H144     H        0.43580    0.40030    0.11930    1.000
    C250     C        0.51890    0.49420    0.26510    1.000
    C251     C        0.57090    0.50850    0.19250    1.000
    H145     H        0.28950    0.49780    0.37230    1.000
    C252     C        0.26570    0.55530    0.31320    1.000
    H146     H        0.24200    0.58800    0.25310    1.000
    C253     C        0.15790    0.49510    0.10420    1.000
    C254     C        0.10190    0.49170    0.17400    1.000
    C255     C        0.41930    0.34800    0.48430    1.000
    H147     H        0.32030    0.30190    0.49340    1.000
    H148     H        0.51510    0.38020    0.46390    1.000
    C256     C        0.16030    0.31020    0.40870    1.000
    C257     C        0.09710    0.42260    0.36310    1.000
    H149     H        0.21620    0.36020    0.53920    1.000
    H150     H        0.42230    0.36980    0.04760    1.000
    C258     C        0.46190    0.48290    0.29390    1.000
    C259     C        0.58710    0.49910    0.28340    1.000
    O70      O        0.56390    0.50690    0.14921    1.000
    C260     C        0.63950    0.51730    0.21230    1.000
    H151     H        0.26130    0.61560    0.32360    1.000
    C261     C        0.21690    0.49850    0.07490    1.000
    C262     C        0.09120    0.49880    0.08330    1.000
    O71      O        0.10849    0.49410    0.21860    1.000
    C263     C        0.03550    0.49040    0.15430    1.000
    H152     H        0.42060    0.38530    0.50910    1.000
    C264     C        0.16010    0.25140    0.37100    1.000
    H153     H        0.07490    0.47970    0.36040    1.000
    C265     C        0.10100    0.36700    0.32820    1.000
    H154     H        0.41650    0.48020    0.28310    1.000
    C266     C        0.47360    0.47600    0.33800    1.000
    C267     C        0.59500    0.49160    0.32990    1.000
    C268     C        0.64590    0.51010    0.25570    1.000
    H155     H        0.60260    0.51070    0.13770    1.000
    C269     C        0.70200    0.52480    0.18490    1.000
    H156     H        0.26170    0.49290    0.08660    1.000
    C270     C        0.21010    0.50930    0.03170    1.000
    C271     C        0.08560    0.50670    0.03820    1.000
    C272     C        0.03150    0.49410    0.10970    1.000
    H157     H        0.06960    0.49950    0.22970    1.000
    C273     C        0.96970    0.49000    0.18100    1.000
    C274     C        0.13170    0.28070    0.33290    1.000
    H158     H        0.17960    0.19240    0.37270    1.000
    H159     H        0.08340    0.38590    0.30120    1.000
    H160     H        0.43530    0.46870    0.35640    1.000
    C275     C        0.53980    0.47950    0.35630    1.000
    H161     H        0.63960    0.49520    0.34200    1.000
    H162     H        0.69040    0.51250    0.26810    1.000
    H163     H        0.25030    0.51340    0.01460    1.000
    C276     C        0.14390    0.51460    0.01090    1.000
    H164     H        0.04130    0.50690    0.02560    1.000
    H165     H        0.98770    0.49340    0.09650    1.000
    O72      O        0.91148    0.47890    0.16244    1.000
    H166     H        0.13290    0.24120    0.30880    1.000
    H167     H        0.54580    0.47350    0.38640    1.000
    H168     H        0.13960    0.52280    0.98080    1.000
