# CIF file generated by openbabel 3.1.0, see https://openbabel.org
data_I
_chemical_name_common 'image0'
_cell_length_a 21.9867
_cell_length_b 16.5916
_cell_length_c 25.552
_cell_angle_alpha 90
_cell_angle_beta 115.203
_cell_angle_gamma 90
_space_group_name_H-M_alt 'P 1'
_space_group_name_Hall 'P 1'
loop_
    _symmetry_equiv_pos_as_xyz
    x,y,z
loop_
    _atom_site_label
    _atom_site_type_symbol
    _atom_site_fract_x
    _atom_site_fract_y
    _atom_site_fract_z
    _atom_site_occupancy
    Ag1      Ag       0.84427    0.45709    0.36725    1.000
    Ag2      Ag       0.82221    0.75508    0.86674    1.000
    C1       C        0.09780    0.97050    0.99940    1.000
    C2       C        0.62370    0.75590    0.50120    1.000
    C3       C        0.27720    0.13840    0.00840    1.000
    H1       H        0.29790    0.13500    0.04850    1.000
    C4       C        0.55960    0.80140    0.46840    1.000
    C5       C        0.18180    0.05250    0.00550    1.000
    C6       C        0.00380    0.88470    0.99510    1.000
    H2       H        0.02370    0.88310    0.03530    1.000
    C7       C        0.79740    0.58360    0.50390    1.000
    H3       H        0.81940    0.58750    0.54400    1.000
    C8       C        0.53290    0.81100    0.41010    1.000
    H4       H        0.55450    0.78980    0.38880    1.000
    C9       C        0.71000    0.72620    0.58640    1.000
    C10      C        0.94410    0.84420    0.96360    1.000
    H5       H        0.92410    0.81620    0.98370    1.000
    C11      C        0.22010    0.15300    0.89120    1.000
    H6       H        0.20040    0.15810    0.85110    1.000
    C12      C        0.18010    0.00230    0.08670    1.000
    C13      C        0.17890    0.95590    0.17980    1.000
    H7       H        0.13490    0.93810    0.15960    1.000
    C14      C        0.74310    0.73640    0.65020    1.000
    C15      C        0.03330    0.92750    0.96550    1.000
    C16      C        0.73560    0.56480    0.38780    1.000
    H8       H        0.71430    0.55850    0.34780    1.000
    C17      C        0.73550    0.62090    0.47330    1.000
    C18      C        0.52560    0.83510    0.49800    1.000
    H9       H        0.54290    0.83080    0.53810    1.000
    C19      C        0.21470    0.10130    0.97660    1.000
    C20      C        0.70390    0.60950    0.41400    1.000
    H10      H        0.66180    0.63180    0.39230    1.000
    C21      C        0.21230    0.99180    0.15100    1.000
    C22      C        0.18600    0.11030    0.91720    1.000
    H11      H        0.14420    0.08780    0.89470    1.000
    C23      C        0.70500    0.67230    0.50360    1.000
    C24      C        0.47330    0.85280    0.38280    1.000
    H12      H        0.45590    0.86030    0.34300    1.000
    C25      C        0.46700    0.87440    0.46790    1.000
    H13      H        0.44480    0.89680    0.48840    1.000
    C26      C        0.82530    0.54100    0.47340    1.000
    H14      H        0.86760    0.51840    0.49390    1.000
    C27      C        0.30740    0.18070    0.97830    1.000
    H15      H        0.34870    0.20540    0.99930    1.000
    C28      C        0.00200    0.92800    0.90570    1.000
    H16      H        0.01970    0.95770    0.88460    1.000
    C29      C        0.30680    0.00500    0.24160    1.000
    H17      H        0.35110    0.02160    0.26260    1.000
    C30      C        0.71450    0.78800    0.67670    1.000
    H18      H        0.67580    0.81720    0.65500    1.000
    C31      C        0.94410    0.88370    0.87810    1.000
    H19      H        0.92480    0.88170    0.83790    1.000
    C32      C        0.21140    0.94660    0.23900    1.000
    H20      H        0.18850    0.92220    0.25810    1.000
    C33      C        0.27780    0.01680    0.18250    1.000
    H21      H        0.30180    0.04090    0.16430    1.000
    C34      C        0.74550    0.79420    0.73600    1.000
    H22      H        0.72650    0.82870    0.75360    1.000
    C35      C        0.82810    0.70850    0.74320    1.000
    H23      H        0.86730    0.68080    0.76590    1.000
    C36      C        0.80210    0.69910    0.68400    1.000
    H24      H        0.82440    0.66780    0.66750    1.000
    N1       N        0.79540    0.53020    0.41650    1.000
    N2       N        0.43940    0.88270    0.41100    1.000
    N3       N        0.80050    0.75490    0.76970    1.000
    N4       N        0.73760    0.67730    0.56150    1.000
    N5       N        0.64790    0.71010    0.47130    1.000
    N6       N        0.65270    0.76690    0.55820    1.000
    N7       N        0.91370    0.84330    0.90580    1.000
    N8       N        0.27510    0.97140    0.27030    1.000
    N9       N        0.27980    0.18700    0.92120    1.000
    N10      N        0.12560    0.01270    0.97180    1.000
    N11      N        0.12270    0.96330    0.05730    1.000
    N12      N        0.21110    0.04990    0.06350    1.000
    Ag3      Ag       0.34427    0.95709    0.36725    1.000
    Ag4      Ag       0.32221    0.25508    0.86674    1.000
    C37      C        0.59780    0.47050    0.99940    1.000
    C38      C        0.12370    0.25590    0.50120    1.000
    C39      C        0.77720    0.63840    0.00840    1.000
    H25      H        0.79790    0.63500    0.04850    1.000
    C40      C        0.05960    0.30140    0.46840    1.000
    C41      C        0.68180    0.55250    0.00550    1.000
    C42      C        0.50380    0.38470    0.99510    1.000
    H26      H        0.52370    0.38310    0.03530    1.000
    C43      C        0.29740    0.08360    0.50390    1.000
    H27      H        0.31940    0.08750    0.54400    1.000
    C44      C        0.03290    0.31100    0.41010    1.000
    H28      H        0.05450    0.28980    0.38880    1.000
    C45      C        0.21000    0.22620    0.58640    1.000
    C46      C        0.44410    0.34420    0.96360    1.000
    H29      H        0.42410    0.31620    0.98370    1.000
    C47      C        0.72010    0.65300    0.89120    1.000
    H30      H        0.70040    0.65810    0.85110    1.000
    C48      C        0.68010    0.50230    0.08670    1.000
    C49      C        0.67890    0.45590    0.17980    1.000
    H31      H        0.63490    0.43810    0.15960    1.000
    C50      C        0.24310    0.23640    0.65020    1.000
    C51      C        0.53330    0.42750    0.96550    1.000
    C52      C        0.23560    0.06480    0.38780    1.000
    H32      H        0.21430    0.05850    0.34780    1.000
    C53      C        0.23550    0.12090    0.47330    1.000
    C54      C        0.02560    0.33510    0.49800    1.000
    H33      H        0.04290    0.33080    0.53810    1.000
    C55      C        0.71470    0.60130    0.97660    1.000
    C56      C        0.20390    0.10950    0.41400    1.000
    H34      H        0.16180    0.13180    0.39230    1.000
    C57      C        0.71230    0.49180    0.15100    1.000
    C58      C        0.68600    0.61030    0.91720    1.000
    H35      H        0.64420    0.58780    0.89470    1.000
    C59      C        0.20500    0.17230    0.50360    1.000
    C60      C        0.97330    0.35280    0.38280    1.000
    H36      H        0.95590    0.36030    0.34300    1.000
    C61      C        0.96700    0.37440    0.46790    1.000
    H37      H        0.94480    0.39680    0.48840    1.000
    C62      C        0.32530    0.04100    0.47340    1.000
    H38      H        0.36760    0.01840    0.49390    1.000
    C63      C        0.80740    0.68070    0.97830    1.000
    H39      H        0.84870    0.70540    0.99930    1.000
    C64      C        0.50200    0.42800    0.90570    1.000
    H40      H        0.51970    0.45770    0.88460    1.000
    C65      C        0.80680    0.50500    0.24160    1.000
    H41      H        0.85110    0.52160    0.26260    1.000
    C66      C        0.21450    0.28800    0.67670    1.000
    H42      H        0.17580    0.31720    0.65500    1.000
    C67      C        0.44410    0.38370    0.87810    1.000
    H43      H        0.42480    0.38170    0.83790    1.000
    C68      C        0.71140    0.44660    0.23900    1.000
    H44      H        0.68850    0.42220    0.25810    1.000
    C69      C        0.77780    0.51680    0.18250    1.000
    H45      H        0.80180    0.54090    0.16430    1.000
    C70      C        0.24550    0.29420    0.73600    1.000
    H46      H        0.22650    0.32870    0.75360    1.000
    C71      C        0.32810    0.20850    0.74320    1.000
    H47      H        0.36730    0.18080    0.76590    1.000
    C72      C        0.30210    0.19910    0.68400    1.000
    H48      H        0.32440    0.16780    0.66750    1.000
    N13      N        0.29540    0.03020    0.41650    1.000
    N14      N        0.93940    0.38270    0.41100    1.000
    N15      N        0.30050    0.25490    0.76970    1.000
    N16      N        0.23760    0.17730    0.56150    1.000
    N17      N        0.14790    0.21010    0.47130    1.000
    N18      N        0.15270    0.26690    0.55820    1.000
    N19      N        0.41370    0.34330    0.90580    1.000
    N20      N        0.77510    0.47140    0.27030    1.000
    N21      N        0.77980    0.68700    0.92120    1.000
    N22      N        0.62560    0.51270    0.97180    1.000
    N23      N        0.62270    0.46330    0.05730    1.000
    N24      N        0.71110    0.54990    0.06350    1.000
    Ag5      Ag       0.15573    0.45709    0.13275    1.000
    Ag6      Ag       0.17779    0.75508    0.63326    1.000
    C73      C        0.90220    0.97050    0.50060    1.000
    C74      C        0.37630    0.75590    0.99880    1.000
    C75      C        0.72280    0.13840    0.49160    1.000
    H49      H        0.70210    0.13500    0.45150    1.000
    C76      C        0.44040    0.80140    0.03160    1.000
    C77      C        0.81820    0.05250    0.49450    1.000
    C78      C        0.99620    0.88470    0.50490    1.000
    H50      H        0.97630    0.88310    0.46470    1.000
    C79      C        0.20260    0.58360    0.99610    1.000
    H51      H        0.18060    0.58750    0.95600    1.000
    C80      C        0.46710    0.81100    0.08990    1.000
    H52      H        0.44550    0.78980    0.11120    1.000
    C81      C        0.29000    0.72620    0.91360    1.000
    C82      C        0.05590    0.84420    0.53640    1.000
    H53      H        0.07590    0.81620    0.51630    1.000
    C83      C        0.77990    0.15300    0.60880    1.000
    H54      H        0.79960    0.15810    0.64890    1.000
    C84      C        0.81990    0.00230    0.41330    1.000
    C85      C        0.82110    0.95590    0.32020    1.000
    H55      H        0.86510    0.93810    0.34040    1.000
    C86      C        0.25690    0.73640    0.84980    1.000
    C87      C        0.96670    0.92750    0.53450    1.000
    C88      C        0.26440    0.56480    0.11220    1.000
    H56      H        0.28570    0.55850    0.15220    1.000
    C89      C        0.26450    0.62090    0.02670    1.000
    C90      C        0.47440    0.83510    0.00200    1.000
    H57      H        0.45710    0.83080    0.96190    1.000
    C91      C        0.78530    0.10130    0.52340    1.000
    C92      C        0.29610    0.60950    0.08600    1.000
    H58      H        0.33820    0.63180    0.10770    1.000
    C93      C        0.78770    0.99180    0.34900    1.000
    C94      C        0.81400    0.11030    0.58280    1.000
    H59      H        0.85580    0.08780    0.60530    1.000
    C95      C        0.29500    0.67230    0.99640    1.000
    C96      C        0.52670    0.85280    0.11720    1.000
    H60      H        0.54410    0.86030    0.15700    1.000
    C97      C        0.53300    0.87440    0.03210    1.000
    H61      H        0.55520    0.89680    0.01160    1.000
    C98      C        0.17470    0.54100    0.02660    1.000
    H62      H        0.13240    0.51840    0.00610    1.000
    C99      C        0.69260    0.18070    0.52170    1.000
    H63      H        0.65130    0.20540    0.50070    1.000
    C100     C        0.99800    0.92800    0.59430    1.000
    H64      H        0.98030    0.95770    0.61540    1.000
    C101     C        0.69320    0.00500    0.25840    1.000
    H65      H        0.64890    0.02160    0.23740    1.000
    C102     C        0.28550    0.78800    0.82330    1.000
    H66      H        0.32420    0.81720    0.84500    1.000
    C103     C        0.05590    0.88370    0.62190    1.000
    H67      H        0.07520    0.88170    0.66210    1.000
    C104     C        0.78860    0.94660    0.26100    1.000
    H68      H        0.81150    0.92220    0.24190    1.000
    C105     C        0.72220    0.01680    0.31750    1.000
    H69      H        0.69820    0.04090    0.33570    1.000
    C106     C        0.25450    0.79420    0.76400    1.000
    H70      H        0.27350    0.82870    0.74640    1.000
    C107     C        0.17190    0.70850    0.75680    1.000
    H71      H        0.13270    0.68080    0.73410    1.000
    C108     C        0.19790    0.69910    0.81600    1.000
    H72      H        0.17560    0.66780    0.83250    1.000
    N25      N        0.20460    0.53020    0.08350    1.000
    N26      N        0.56060    0.88270    0.08900    1.000
    N27      N        0.19950    0.75490    0.73030    1.000
    N28      N        0.26240    0.67730    0.93850    1.000
    N29      N        0.35210    0.71010    0.02870    1.000
    N30      N        0.34730    0.76690    0.94180    1.000
    N31      N        0.08630    0.84330    0.59420    1.000
    N32      N        0.72490    0.97140    0.22970    1.000
    N33      N        0.72020    0.18700    0.57880    1.000
    N34      N        0.87440    0.01270    0.52820    1.000
    N35      N        0.87730    0.96330    0.44270    1.000
    N36      N        0.78890    0.04990    0.43650    1.000
    Ag7      Ag       0.65573    0.95709    0.13275    1.000
    Ag8      Ag       0.67779    0.25508    0.63326    1.000
    C109     C        0.40220    0.47050    0.50060    1.000
    C110     C        0.87630    0.25590    0.99880    1.000
    C111     C        0.22280    0.63840    0.49160    1.000
    H73      H        0.20210    0.63500    0.45150    1.000
    C112     C        0.94040    0.30140    0.03160    1.000
    C113     C        0.31820    0.55250    0.49450    1.000
    C114     C        0.49620    0.38470    0.50490    1.000
    H74      H        0.47630    0.38310    0.46470    1.000
    C115     C        0.70260    0.08360    0.99610    1.000
    H75      H        0.68060    0.08750    0.95600    1.000
    C116     C        0.96710    0.31100    0.08990    1.000
    H76      H        0.94550    0.28980    0.11120    1.000
    C117     C        0.79000    0.22620    0.91360    1.000
    C118     C        0.55590    0.34420    0.53640    1.000
    H77      H        0.57590    0.31620    0.51630    1.000
    C119     C        0.27990    0.65300    0.60880    1.000
    H78      H        0.29960    0.65810    0.64890    1.000
    C120     C        0.31990    0.50230    0.41330    1.000
    C121     C        0.32110    0.45590    0.32020    1.000
    H79      H        0.36510    0.43810    0.34040    1.000
    C122     C        0.75690    0.23640    0.84980    1.000
    C123     C        0.46670    0.42750    0.53450    1.000
    C124     C        0.76440    0.06480    0.11220    1.000
    H80      H        0.78570    0.05850    0.15220    1.000
    C125     C        0.76450    0.12090    0.02670    1.000
    C126     C        0.97440    0.33510    0.00200    1.000
    H81      H        0.95710    0.33080    0.96190    1.000
    C127     C        0.28530    0.60130    0.52340    1.000
    C128     C        0.79610    0.10950    0.08600    1.000
    H82      H        0.83820    0.13180    0.10770    1.000
    C129     C        0.28770    0.49180    0.34900    1.000
    C130     C        0.31400    0.61030    0.58280    1.000
    H83      H        0.35580    0.58780    0.60530    1.000
    C131     C        0.79500    0.17230    0.99640    1.000
    C132     C        0.02670    0.35280    0.11720    1.000
    H84      H        0.04410    0.36030    0.15700    1.000
    C133     C        0.03300    0.37440    0.03210    1.000
    H85      H        0.05520    0.39680    0.01160    1.000
    C134     C        0.67470    0.04100    0.02660    1.000
    H86      H        0.63240    0.01840    0.00610    1.000
    C135     C        0.19260    0.68070    0.52170    1.000
    H87      H        0.15130    0.70540    0.50070    1.000
    C136     C        0.49800    0.42800    0.59430    1.000
    H88      H        0.48030    0.45770    0.61540    1.000
    C137     C        0.19320    0.50500    0.25840    1.000
    H89      H        0.14890    0.52160    0.23740    1.000
    C138     C        0.78550    0.28800    0.82330    1.000
    H90      H        0.82420    0.31720    0.84500    1.000
    C139     C        0.55590    0.38370    0.62190    1.000
    H91      H        0.57520    0.38170    0.66210    1.000
    C140     C        0.28860    0.44660    0.26100    1.000
    H92      H        0.31150    0.42220    0.24190    1.000
    C141     C        0.22220    0.51680    0.31750    1.000
    H93      H        0.19820    0.54090    0.33570    1.000
    C142     C        0.75450    0.29420    0.76400    1.000
    H94      H        0.77350    0.32870    0.74640    1.000
    C143     C        0.67190    0.20850    0.75680    1.000
    H95      H        0.63270    0.18080    0.73410    1.000
    C144     C        0.69790    0.19910    0.81600    1.000
    H96      H        0.67560    0.16780    0.83250    1.000
    N37      N        0.70460    0.03020    0.08350    1.000
    N38      N        0.06060    0.38270    0.08900    1.000
    N39      N        0.69950    0.25490    0.73030    1.000
    N40      N        0.76240    0.17730    0.93850    1.000
    N41      N        0.85210    0.21010    0.02870    1.000
    N42      N        0.84730    0.26690    0.94180    1.000
    N43      N        0.58630    0.34330    0.59420    1.000
    N44      N        0.22490    0.47140    0.22970    1.000
    N45      N        0.22020    0.68700    0.57880    1.000
    N46      N        0.37440    0.51270    0.52820    1.000
    N47      N        0.37730    0.46330    0.44270    1.000
    N48      N        0.28890    0.54990    0.43650    1.000
    Ag9      Ag       0.15573    0.54291    0.63275    1.000
    Ag10     Ag       0.17779    0.24492    0.13326    1.000
    C145     C        0.90220    0.02950    0.00060    1.000
    C146     C        0.37630    0.24410    0.49880    1.000
    C147     C        0.72280    0.86160    0.99160    1.000
    H97      H        0.70210    0.86500    0.95150    1.000
    C148     C        0.44040    0.19860    0.53160    1.000
    C149     C        0.81820    0.94750    0.99450    1.000
    C150     C        0.99620    0.11530    0.00490    1.000
    H98      H        0.97630    0.11690    0.96470    1.000
    C151     C        0.20260    0.41640    0.49610    1.000
    H99      H        0.18060    0.41250    0.45600    1.000
    C152     C        0.46710    0.18900    0.58990    1.000
    H100     H        0.44550    0.21020    0.61120    1.000
    C153     C        0.29000    0.27380    0.41360    1.000
    C154     C        0.05590    0.15580    0.03640    1.000
    H101     H        0.07590    0.18380    0.01630    1.000
    C155     C        0.77990    0.84700    0.10880    1.000
    H102     H        0.79960    0.84190    0.14890    1.000
    C156     C        0.81990    0.99770    0.91330    1.000
    C157     C        0.82110    0.04410    0.82020    1.000
    H103     H        0.86510    0.06190    0.84040    1.000
    C158     C        0.25690    0.26360    0.34980    1.000
    C159     C        0.96670    0.07250    0.03450    1.000
    C160     C        0.26440    0.43520    0.61220    1.000
    H104     H        0.28570    0.44150    0.65220    1.000
    C161     C        0.26450    0.37910    0.52670    1.000
    C162     C        0.47440    0.16490    0.50200    1.000
    H105     H        0.45710    0.16920    0.46190    1.000
    C163     C        0.78530    0.89870    0.02340    1.000
    C164     C        0.29610    0.39050    0.58600    1.000
    H106     H        0.33820    0.36820    0.60770    1.000
    C165     C        0.78770    0.00820    0.84900    1.000
    C166     C        0.81400    0.88970    0.08280    1.000
    H107     H        0.85580    0.91220    0.10530    1.000
    C167     C        0.29500    0.32770    0.49640    1.000
    C168     C        0.52670    0.14720    0.61720    1.000
    H108     H        0.54410    0.13970    0.65700    1.000
    C169     C        0.53300    0.12560    0.53210    1.000
    H109     H        0.55520    0.10320    0.51160    1.000
    C170     C        0.17470    0.45900    0.52660    1.000
    H110     H        0.13240    0.48160    0.50610    1.000
    C171     C        0.69260    0.81930    0.02170    1.000
    H111     H        0.65130    0.79460    0.00070    1.000
    C172     C        0.99800    0.07200    0.09430    1.000
    H112     H        0.98030    0.04230    0.11540    1.000
    C173     C        0.69320    0.99500    0.75840    1.000
    H113     H        0.64890    0.97840    0.73740    1.000
    C174     C        0.28550    0.21200    0.32330    1.000
    H114     H        0.32420    0.18280    0.34500    1.000
    C175     C        0.05590    0.11630    0.12190    1.000
    H115     H        0.07520    0.11830    0.16210    1.000
    C176     C        0.78860    0.05340    0.76100    1.000
    H116     H        0.81150    0.07780    0.74190    1.000
    C177     C        0.72220    0.98320    0.81750    1.000
    H117     H        0.69820    0.95910    0.83570    1.000
    C178     C        0.25450    0.20580    0.26400    1.000
    H118     H        0.27350    0.17130    0.24640    1.000
    C179     C        0.17190    0.29150    0.25680    1.000
    H119     H        0.13270    0.31920    0.23410    1.000
    C180     C        0.19790    0.30090    0.31600    1.000
    H120     H        0.17560    0.33220    0.33250    1.000
    N49      N        0.20460    0.46980    0.58350    1.000
    N50      N        0.56060    0.11730    0.58900    1.000
    N51      N        0.19950    0.24510    0.23030    1.000
    N52      N        0.26240    0.32270    0.43850    1.000
    N53      N        0.35210    0.28990    0.52870    1.000
    N54      N        0.34730    0.23310    0.44180    1.000
    N55      N        0.08630    0.15670    0.09420    1.000
    N56      N        0.72490    0.02860    0.72970    1.000
    N57      N        0.72020    0.81300    0.07880    1.000
    N58      N        0.87440    0.98730    0.02820    1.000
    N59      N        0.87730    0.03670    0.94270    1.000
    N60      N        0.78890    0.95010    0.93650    1.000
    Ag11     Ag       0.65573    0.04291    0.63275    1.000
    Ag12     Ag       0.67779    0.74492    0.13326    1.000
    C181     C        0.40220    0.52950    0.00060    1.000
    C182     C        0.87630    0.74410    0.49880    1.000
    C183     C        0.22280    0.36160    0.99160    1.000
    H121     H        0.20210    0.36500    0.95150    1.000
    C184     C        0.94040    0.69860    0.53160    1.000
    C185     C        0.31820    0.44750    0.99450    1.000
    C186     C        0.49620    0.61530    0.00490    1.000
    H122     H        0.47630    0.61690    0.96470    1.000
    C187     C        0.70260    0.91640    0.49610    1.000
    H123     H        0.68060    0.91250    0.45600    1.000
    C188     C        0.96710    0.68900    0.58990    1.000
    H124     H        0.94550    0.71020    0.61120    1.000
    C189     C        0.79000    0.77380    0.41360    1.000
    C190     C        0.55590    0.65580    0.03640    1.000
    H125     H        0.57590    0.68380    0.01630    1.000
    C191     C        0.27990    0.34700    0.10880    1.000
    H126     H        0.29960    0.34190    0.14890    1.000
    C192     C        0.31990    0.49770    0.91330    1.000
    C193     C        0.32110    0.54410    0.82020    1.000
    H127     H        0.36510    0.56190    0.84040    1.000
    C194     C        0.75690    0.76360    0.34980    1.000
    C195     C        0.46670    0.57250    0.03450    1.000
    C196     C        0.76440    0.93520    0.61220    1.000
    H128     H        0.78570    0.94150    0.65220    1.000
    C197     C        0.76450    0.87910    0.52670    1.000
    C198     C        0.97440    0.66490    0.50200    1.000
    H129     H        0.95710    0.66920    0.46190    1.000
    C199     C        0.28530    0.39870    0.02340    1.000
    C200     C        0.79610    0.89050    0.58600    1.000
    H130     H        0.83820    0.86820    0.60770    1.000
    C201     C        0.28770    0.50820    0.84900    1.000
    C202     C        0.31400    0.38970    0.08280    1.000
    H131     H        0.35580    0.41220    0.10530    1.000
    C203     C        0.79500    0.82770    0.49640    1.000
    C204     C        0.02670    0.64720    0.61720    1.000
    H132     H        0.04410    0.63970    0.65700    1.000
    C205     C        0.03300    0.62560    0.53210    1.000
    H133     H        0.05520    0.60320    0.51160    1.000
    C206     C        0.67470    0.95900    0.52660    1.000
    H134     H        0.63240    0.98160    0.50610    1.000
    C207     C        0.19260    0.31930    0.02170    1.000
    H135     H        0.15130    0.29460    0.00070    1.000
    C208     C        0.49800    0.57200    0.09430    1.000
    H136     H        0.48030    0.54230    0.11540    1.000
    C209     C        0.19320    0.49500    0.75840    1.000
    H137     H        0.14890    0.47840    0.73740    1.000
    C210     C        0.78550    0.71200    0.32330    1.000
    H138     H        0.82420    0.68280    0.34500    1.000
    C211     C        0.55590    0.61630    0.12190    1.000
    H139     H        0.57520    0.61830    0.16210    1.000
    C212     C        0.28860    0.55340    0.76100    1.000
    H140     H        0.31150    0.57780    0.74190    1.000
    C213     C        0.22220    0.48320    0.81750    1.000
    H141     H        0.19820    0.45910    0.83570    1.000
    C214     C        0.75450    0.70580    0.26400    1.000
    H142     H        0.77350    0.67130    0.24640    1.000
    C215     C        0.67190    0.79150    0.25680    1.000
    H143     H        0.63270    0.81920    0.23410    1.000
    C216     C        0.69790    0.80090    0.31600    1.000
    H144     H        0.67560    0.83220    0.33250    1.000
    N61      N        0.70460    0.96980    0.58350    1.000
    N62      N        0.06060    0.61730    0.58900    1.000
    N63      N        0.69950    0.74510    0.23030    1.000
    N64      N        0.76240    0.82270    0.43850    1.000
    N65      N        0.85210    0.78990    0.52870    1.000
    N66      N        0.84730    0.73310    0.44180    1.000
    N67      N        0.58630    0.65670    0.09420    1.000
    N68      N        0.22490    0.52860    0.72970    1.000
    N69      N        0.22020    0.31300    0.07880    1.000
    N70      N        0.37440    0.48730    0.02820    1.000
    N71      N        0.37730    0.53670    0.94270    1.000
    N72      N        0.28890    0.45010    0.93650    1.000
    Ag13     Ag       0.84427    0.54291    0.86725    1.000
    Ag14     Ag       0.82221    0.24492    0.36674    1.000
    C217     C        0.09780    0.02950    0.49940    1.000
    C218     C        0.62370    0.24410    0.00120    1.000
    C219     C        0.27720    0.86160    0.50840    1.000
    H145     H        0.29790    0.86500    0.54850    1.000
    C220     C        0.55960    0.19860    0.96840    1.000
    C221     C        0.18180    0.94750    0.50550    1.000
    C222     C        0.00380    0.11530    0.49510    1.000
    H146     H        0.02370    0.11690    0.53530    1.000
    C223     C        0.79740    0.41640    0.00390    1.000
    H147     H        0.81940    0.41250    0.04400    1.000
    C224     C        0.53290    0.18900    0.91010    1.000
    H148     H        0.55450    0.21020    0.88880    1.000
    C225     C        0.71000    0.27380    0.08640    1.000
    C226     C        0.94410    0.15580    0.46360    1.000
    H149     H        0.92410    0.18380    0.48370    1.000
    C227     C        0.22010    0.84700    0.39120    1.000
    H150     H        0.20040    0.84190    0.35110    1.000
    C228     C        0.18010    0.99770    0.58670    1.000
    C229     C        0.17890    0.04410    0.67980    1.000
    H151     H        0.13490    0.06190    0.65960    1.000
    C230     C        0.74310    0.26360    0.15020    1.000
    C231     C        0.03330    0.07250    0.46550    1.000
    C232     C        0.73560    0.43520    0.88780    1.000
    H152     H        0.71430    0.44150    0.84780    1.000
    C233     C        0.73550    0.37910    0.97330    1.000
    C234     C        0.52560    0.16490    0.99800    1.000
    H153     H        0.54290    0.16920    0.03810    1.000
    C235     C        0.21470    0.89870    0.47660    1.000
    C236     C        0.70390    0.39050    0.91400    1.000
    H154     H        0.66180    0.36820    0.89230    1.000
    C237     C        0.21230    0.00820    0.65100    1.000
    C238     C        0.18600    0.88970    0.41720    1.000
    H155     H        0.14420    0.91220    0.39470    1.000
    C239     C        0.70500    0.32770    0.00360    1.000
    C240     C        0.47330    0.14720    0.88280    1.000
    H156     H        0.45590    0.13970    0.84300    1.000
    C241     C        0.46700    0.12560    0.96790    1.000
    H157     H        0.44480    0.10320    0.98840    1.000
    C242     C        0.82530    0.45900    0.97340    1.000
    H158     H        0.86760    0.48160    0.99390    1.000
    C243     C        0.30740    0.81930    0.47830    1.000
    H159     H        0.34870    0.79460    0.49930    1.000
    C244     C        0.00200    0.07200    0.40570    1.000
    H160     H        0.01970    0.04230    0.38460    1.000
    C245     C        0.30680    0.99500    0.74160    1.000
    H161     H        0.35110    0.97840    0.76260    1.000
    C246     C        0.71450    0.21200    0.17670    1.000
    H162     H        0.67580    0.18280    0.15500    1.000
    C247     C        0.94410    0.11630    0.37810    1.000
    H163     H        0.92480    0.11830    0.33790    1.000
    C248     C        0.21140    0.05340    0.73900    1.000
    H164     H        0.18850    0.07780    0.75810    1.000
    C249     C        0.27780    0.98320    0.68250    1.000
    H165     H        0.30180    0.95910    0.66430    1.000
    C250     C        0.74550    0.20580    0.23600    1.000
    H166     H        0.72650    0.17130    0.25360    1.000
    C251     C        0.82810    0.29150    0.24320    1.000
    H167     H        0.86730    0.31920    0.26590    1.000
    C252     C        0.80210    0.30090    0.18400    1.000
    H168     H        0.82440    0.33220    0.16750    1.000
    N73      N        0.79540    0.46980    0.91650    1.000
    N74      N        0.43940    0.11730    0.91100    1.000
    N75      N        0.80050    0.24510    0.26970    1.000
    N76      N        0.73760    0.32270    0.06150    1.000
    N77      N        0.64790    0.28990    0.97130    1.000
    N78      N        0.65270    0.23310    0.05820    1.000
    N79      N        0.91370    0.15670    0.40580    1.000
    N80      N        0.27510    0.02860    0.77030    1.000
    N81      N        0.27980    0.81300    0.42120    1.000
    N82      N        0.12560    0.98730    0.47180    1.000
    N83      N        0.12270    0.03670    0.55730    1.000
    N84      N        0.21110    0.95010    0.56350    1.000
    Ag15     Ag       0.34427    0.04291    0.86725    1.000
    Ag16     Ag       0.32221    0.74492    0.36674    1.000
    C253     C        0.59780    0.52950    0.49940    1.000
    C254     C        0.12370    0.74410    0.00120    1.000
    C255     C        0.77720    0.36160    0.50840    1.000
    H169     H        0.79790    0.36500    0.54850    1.000
    C256     C        0.05960    0.69860    0.96840    1.000
    C257     C        0.68180    0.44750    0.50550    1.000
    C258     C        0.50380    0.61530    0.49510    1.000
    H170     H        0.52370    0.61690    0.53530    1.000
    C259     C        0.29740    0.91640    0.00390    1.000
    H171     H        0.31940    0.91250    0.04400    1.000
    C260     C        0.03290    0.68900    0.91010    1.000
    H172     H        0.05450    0.71020    0.88880    1.000
    C261     C        0.21000    0.77380    0.08640    1.000
    C262     C        0.44410    0.65580    0.46360    1.000
    H173     H        0.42410    0.68380    0.48370    1.000
    C263     C        0.72010    0.34700    0.39120    1.000
    H174     H        0.70040    0.34190    0.35110    1.000
    C264     C        0.68010    0.49770    0.58670    1.000
    C265     C        0.67890    0.54410    0.67980    1.000
    H175     H        0.63490    0.56190    0.65960    1.000
    C266     C        0.24310    0.76360    0.15020    1.000
    C267     C        0.53330    0.57250    0.46550    1.000
    C268     C        0.23560    0.93520    0.88780    1.000
    H176     H        0.21430    0.94150    0.84780    1.000
    C269     C        0.23550    0.87910    0.97330    1.000
    C270     C        0.02560    0.66490    0.99800    1.000
    H177     H        0.04290    0.66920    0.03810    1.000
    C271     C        0.71470    0.39870    0.47660    1.000
    C272     C        0.20390    0.89050    0.91400    1.000
    H178     H        0.16180    0.86820    0.89230    1.000
    C273     C        0.71230    0.50820    0.65100    1.000
    C274     C        0.68600    0.38970    0.41720    1.000
    H179     H        0.64420    0.41220    0.39470    1.000
    C275     C        0.20500    0.82770    0.00360    1.000
    C276     C        0.97330    0.64720    0.88280    1.000
    H180     H        0.95590    0.63970    0.84300    1.000
    C277     C        0.96700    0.62560    0.96790    1.000
    H181     H        0.94480    0.60320    0.98840    1.000
    C278     C        0.32530    0.95900    0.97340    1.000
    H182     H        0.36760    0.98160    0.99390    1.000
    C279     C        0.80740    0.31930    0.47830    1.000
    H183     H        0.84870    0.29460    0.49930    1.000
    C280     C        0.50200    0.57200    0.40570    1.000
    H184     H        0.51970    0.54230    0.38460    1.000
    C281     C        0.80680    0.49500    0.74160    1.000
    H185     H        0.85110    0.47840    0.76260    1.000
    C282     C        0.21450    0.71200    0.17670    1.000
    H186     H        0.17580    0.68280    0.15500    1.000
    C283     C        0.44410    0.61630    0.37810    1.000
    H187     H        0.42480    0.61830    0.33790    1.000
    C284     C        0.71140    0.55340    0.73900    1.000
    H188     H        0.68850    0.57780    0.75810    1.000
    C285     C        0.77780    0.48320    0.68250    1.000
    H189     H        0.80180    0.45910    0.66430    1.000
    C286     C        0.24550    0.70580    0.23600    1.000
    H190     H        0.22650    0.67130    0.25360    1.000
    C287     C        0.32810    0.79150    0.24320    1.000
    H191     H        0.36730    0.81920    0.26590    1.000
    C288     C        0.30210    0.80090    0.18400    1.000
    H192     H        0.32440    0.83220    0.16750    1.000
    N85      N        0.29540    0.96980    0.91650    1.000
    N86      N        0.93940    0.61730    0.91100    1.000
    N87      N        0.30050    0.74510    0.26970    1.000
    N88      N        0.23760    0.82270    0.06150    1.000
    N89      N        0.14790    0.78990    0.97130    1.000
    N90      N        0.15270    0.73310    0.05820    1.000
    N91      N        0.41370    0.65670    0.40580    1.000
    N92      N        0.77510    0.52860    0.77030    1.000
    N93      N        0.77980    0.31300    0.42120    1.000
    N94      N        0.62560    0.48730    0.47180    1.000
    N95      N        0.62270    0.53670    0.55730    1.000
    N96      N        0.71110    0.45010    0.56350    1.000
