data_functionalizedCrystal
_audit_creation_method	'EQeq! by Chris Wilmer'
_symmetry_space_group_name_H-M	'P1'
_symmetry_Int_Tables_number	1
_symmetry_cell_setting	triclinic
loop_
_symmetry_equiv_pos_as_xyz
  x,y,z
_cell_length_a	22.214
_cell_length_b	23.4645
_cell_length_c	6.6395
_cell_angle_alpha	90.398
_cell_angle_beta	108.236
_cell_angle_gamma	57.6
loop_
_atom_site_label
_atom_site_type_symbol
_atom_site_fract_x
_atom_site_fract_y
_atom_site_fract_z
_atom_site_charge
Mof_Al	Al	-0	0	-0	11.769
Mof_Al	Al	0.5075	0.99846	0.97339	11.174
Mof_Al	Al	0.01032	0.48991	0.97344	8.091
Mof_Al	Al	0.48157	0.50534	0.96676	13.563
Mof_Al	Al	0.00664	0.00138	0.43567	16.132
Mof_Al	Al	0.50045	0.98066	0.49493	8.562
Mof_Al	Al	0.98542	0.49363	0.45363	13.85
Mof_Al	Al	0.49977	0.49334	0.49921	11.591
Mof_O 	O 	-1.04532e-17	0.0375	0.75	-5.128
Mof_O 	O 	0.5	0.0375	0.75	-5.205
Mof_O 	O 	-1.04532e-17	0.5375	0.75	-4.675
Mof_O 	O 	0.5	0.5375	0.75	-5.903
Mof_O 	O 	-1.69864e-17	0.9625	0.25	-9.139
Mof_O 	O 	0.5	0.9625	0.25	-4.311
Mof_O 	O 	2.48263e-17	0.4625	0.25	-6.355
Mof_O 	O 	0.5	0.4625	0.25	-5.874
Mof_H 	H 	-1.04532e-17	0.0703	0.75	1.955
Mof_H 	H 	0.5	0.0703	0.75	2.243
Mof_H 	H 	-1.04532e-17	0.5703	0.75	1.856
Mof_H 	H 	0.5	0.5703	0.75	2.48
Mof_H 	H 	-1.69864e-17	0.9297	0.25	3.57
Mof_H 	H 	0.5	0.9297	0.25	1.409
Mof_H 	H 	-1.69864e-17	0.4297	0.25	2.041
Mof_H 	H 	0.5	0.4297	0.25	2.146
Mof_C 	C 	0.09938	0.01028	0.3771	2.491
Mof_C 	C 	0.16925	0.0125	0.41744	-0.913
Mof_C 	C 	0.19344	0.01452	0.25049	0.488
Mof_C 	C 	0.20951	0.01254	0.6216	0.469
Mof_C 	C 	0.25744	0.01655	0.28743	0.453
Mof_C 	C 	0.2735	0.01458	0.65855	0.54
Mof_C 	C 	0.2977	0.0166	0.4916	-0.753
Mof_C 	C 	0.36757	0.01882	0.53194	1.224
Mof_O 	O 	0.06293	0.01024	0.1923	-4.035
Mof_O 	O 	0.07747	0.00846	0.52822	-4.805
Mof_O 	O 	0.40401	0.01886	0.71674	-1.961
Mof_O 	O 	0.38947	0.02064	0.38082	-1.695
Mof_N 	N 	0.16057	0.00366	0.05684	0.543
Mof_H 	H 	0.11232	0.01424	0.01765	-0.118
Mof_H 	H 	0.18744	0.98602	0.97011	-0.275
Mof_C 	C 	0.59214	0.01339	0.28348	1.94
Mof_C 	C 	0.66634	0.00915	0.37481	-0.681
Mof_C 	C 	0.70636	0.00508	0.2442	-0.016
Mof_C 	C 	0.69479	0.0093	0.58968	0.713
Mof_C 	C 	0.77432	0.00119	0.32786	1.205
Mof_C 	C 	0.76275	0.00541	0.67333	0.715
Mof_C 	C 	0.80277	0.00134	0.54272	-1.163
Mof_C 	C 	0.87697	0.9971	0.63405	1.684
Mof_O 	O 	0.5664	0.01325	0.08899	-3.421
Mof_O 	O 	0.55592	0.01707	0.4017	-1.705
Mof_O 	O 	0.90272	0.99723	0.82855	-1.982
Mof_O 	O 	0.91319	0.99341	0.51583	-1.758
Mof_N 	N 	0.68418	0.99417	0.04041	0.546
Mof_H 	H 	0.63502	0.00831	0.97176	-0.158
Mof_H 	H 	0.71893	0.97295	0.97654	-0.068
Mof_C 	C 	0.38608	0.50341	0.63277	2.914
Mof_C 	C 	0.31433	0.50328	0.55302	-1.341
Mof_C 	C 	0.27567	0.5156	0.3352	0.961
Mof_C 	C 	0.2868	0.49084	0.69726	0.729
Mof_C 	C 	0.20995	0.51548	0.26215	-0.005
Mof_C 	C 	0.22108	0.49072	0.62421	0.784
Mof_C 	C 	0.18241	0.50304	0.4064	-0.684
Mof_C 	C 	0.11066	0.50291	0.32664	1.566
Mof_O 	O 	0.411	0.51467	0.50221	-3.415
Mof_O 	O 	0.42107	0.49225	0.82994	-4.825
Mof_O 	O 	0.08574	0.49165	0.45721	-1.797
Mof_O 	O 	0.07567	0.51406	0.12948	-1.842
Mof_N 	N 	0.2964	0.53837	0.19403	0.548
Mof_H 	H 	0.34474	0.52745	0.23179	-0.067
Mof_H 	H 	0.26153	0.56408	0.06446	-0.04
Mof_C 	C 	0.59949	0.51441	0.36486	1.92
Mof_C 	C 	0.6724	0.51242	0.42059	-0.885
Mof_C 	C 	0.69599	0.52127	0.2598	0.355
Mof_C 	C 	0.71608	0.50173	0.6328	0.762
Mof_C 	C 	0.76277	0.51945	0.31084	1.028
Mof_C 	C 	0.78287	0.4999	0.68384	0.58
Mof_C 	C 	0.80645	0.50876	0.52305	-1.13
Mof_C 	C 	0.87936	0.50677	0.57878	2.224
Mof_O 	O 	0.55995	0.52409	0.17278	-1.93
Mof_O 	O 	0.57815	0.50639	0.51041	-2.371
Mof_O 	O 	0.9189	0.49709	0.77086	-2.134
Mof_O 	O 	0.90071	0.51478	0.43323	-4.06
Mof_N 	N 	0.65904	0.52108	0.05332	0.8
Mof_H 	H 	0.60972	0.53437	0.01054	-0.048
Mof_H 	H 	0.68435	0.50766	0.96184	-0.396
Mof_C 	C 	0.61556	0.38243	0.8593	2.235
Mof_C 	C 	0.6897	0.311	0.9405	-1.476
Mof_C 	C 	0.72495	0.28206	0.15738	0.966
Mof_C 	C 	0.72285	0.27403	0.79853	0.885
Mof_C 	C 	0.79286	0.21663	0.23176	1.048
Mof_C 	C 	0.79076	0.2086	0.87291	0.705
Mof_C 	C 	0.82601	0.17966	0.08979	-0.96
Mof_C 	C 	0.90015	0.10823	0.171	2.698
Mof_O 	O 	0.58556	0.4159	0.9878	-2.659
Mof_O 	O 	0.58365	0.40863	0.66298	-2.945
Mof_O 	O 	0.93016	0.07476	0.04249	-3.341
Mof_O 	O 	0.93206	0.08203	0.36731	-4.354
Mof_N 	N 	0.69827	0.32314	0.29935	0.892
Mof_H 	H 	0.64881	0.35962	0.25736	-0.094
Mof_H 	H 	0.73037	0.31336	0.43365	-0.176
Mof_C 	C 	0.10876	0.38282	0.84584	2.054
Mof_C 	C 	0.18413	0.31227	0.91602	-1.448
Mof_C 	C 	0.21137	0.27163	0.1142	0.977
Mof_C 	C 	0.22642	0.28781	0.78257	0.905
Mof_C 	C 	0.2804	0.207	0.17848	0.88
Mof_C 	C 	0.29546	0.22319	0.84684	0.727
Mof_C 	C 	0.3227	0.18255	0.04503	-0.812
Mof_C 	C 	0.39807	0.11199	0.1152	2.012
Mof_O 	O 	0.07047	0.40496	0.96664	-2.809
Mof_O 	O 	0.0841	0.41961	0.66645	-2.958
Mof_O 	O 	0.43636	0.08986	0.9944	-2.518
Mof_O 	O 	0.42273	0.07521	0.29459	-1.597
Mof_N 	N 	0.1753	0.30055	0.25788	0.801
Mof_H 	H 	0.12518	0.33583	0.21068	-0.07
Mof_H 	H 	0.20196	0.28408	0.3985	-0.171
Mof_C 	C 	0.90024	0.6089	0.12701	2.035
Mof_C 	C 	0.82497	0.67941	0.04119	-0.798
Mof_C 	C 	0.79042	0.71711	0.17994	1
Mof_C 	C 	0.79008	0.70677	0.82326	0.676
Mof_C 	C 	0.72148	0.78169	0.10134	0.954
Mof_C 	C 	0.72114	0.77136	0.74466	0.902
Mof_C 	C 	0.68659	0.80905	0.88341	-1.466
Mof_C 	C 	0.61132	0.87956	0.79759	2.173
Mof_O 	O 	0.93182	0.58414	0.32427	-2.922
Mof_O 	O 	0.93151	0.57478	0.00141	-1.64
Mof_O 	O 	0.57974	0.90433	0.60033	-2.925
Mof_O 	O 	0.58005	0.91368	0.92319	-2.995
Mof_N 	N 	0.81908	0.68521	0.3906	1.485
Mof_H 	H 	0.86897	0.64996	0.45208	-0.209
Mof_H 	H 	0.78783	0.69971	0.46609	-0.212
Mof_C 	C 	0.40816	0.61076	0.14738	2.637
Mof_C 	C 	0.33008	0.67892	0.06777	-1.006
Mof_C 	C 	0.29447	0.71179	0.21048	0.96
Mof_C 	C 	0.29365	0.70893	0.85162	0.653
Mof_C 	C 	0.22295	0.77422	0.13756	0.997
Mof_C 	C 	0.22213	0.77136	0.77871	0.8
Mof_C 	C 	0.18652	0.80423	0.92141	-1.49
Mof_C 	C 	0.10844	0.8724	0.84181	2.095
Mof_O 	O 	0.44114	0.58359	0.34303	-2.693
Mof_O 	O 	0.4404	0.581	0.01821	-3.897
Mof_O 	O 	0.07547	0.89956	0.64615	-2.518
Mof_O 	O 	0.07621	0.90215	0.97098	-2.589
Mof_N 	N 	0.32538	0.67662	0.41828	1.405
Mof_H 	H 	0.3761	0.6433	0.47742	-0.268
Mof_H 	H 	0.29476	0.68706	0.49427	-0.202
Mof_N 	N 	0.19314	0.99977	0.79289	0.603
Mof_N 	N 	0.2746	0.02934	0.11797	0.742
Mof_N 	N 	0.30638	0.02544	0.8522	0.907
Mof_H 	H 	0.16743	0.01449	0.11859	-0.579
Mof_H 	H 	0.19387	0.01124	0.72946	-0.703
Mof_H 	H 	0.27307	0.01785	0.17958	-0.713
Mof_H 	H 	0.29951	0.01461	0.79045	-0.981
Mof_H 	H 	0.14708	0.00692	0.77193	0.003
Mof_H 	H 	0.22855	0.98432	0.92523	-0.124
Mof_H 	H 	0.32207	0.01886	0.13918	-0.012
Mof_H 	H 	0.23829	0.04814	0.98656	-0.261
Mof_H 	H 	0.35462	0.01486	0.89139	-0.385
Mof_H 	H 	0.27951	0.04308	0.93893	-0.352
Mof_N 	N 	0.66202	0.0025	0.72617	1.316
Mof_N 	N 	0.80782	0.00796	0.19363	1.112
Mof_N 	N 	0.78493	0.01632	0.87713	0.959
Mof_H 	H 	0.68798	0.00498	0.10539	-0.268
Mof_H 	H 	0.66894	0.01193	0.67406	-1.347
Mof_H 	H 	0.80017	0.99856	0.24348	-1.346
Mof_H 	H 	0.78113	0.00551	0.81214	-1.072
Mof_H 	H 	0.61351	0.01354	0.67431	-0.323
Mof_H 	H 	0.68923	0.98702	0.86678	-0.438
Mof_H 	H 	0.85754	0.99362	0.24554	-0.213
Mof_H 	H 	0.77987	0.02671	0.05443	-0.063
Mof_H 	H 	0.83409	0.00218	0.94578	-0.271
Mof_H 	H 	0.75018	0.03754	0.94099	-0.346
Mof_N 	N 	0.31771	0.48928	0.91088	0.841
Mof_N 	N 	0.17832	0.51694	0.04907	0.497
Mof_N 	N 	0.20034	0.46795	0.76539	1.459
Mof_H 	H 	0.29345	0.52363	0.24201	-0.798
Mof_H 	H 	0.31177	0.48288	0.83798	-0.982
Mof_H 	H 	0.18497	0.52344	0.12143	-0.206
Mof_H 	H 	0.20329	0.48268	0.7174	-1.477
Mof_H 	H 	0.3652	0.48052	0.9655	-0.253
Mof_H 	H 	0.29032	0.49703	0.99516	-0.337
Mof_H 	H 	0.12944	0.52905	0.99376	-0.308
Mof_H 	H 	0.20665	0.50578	0.96581	-0.245
Mof_H 	H 	0.152	0.47886	0.72762	-0.287
Mof_H 	H 	0.23521	0.44223	0.89495	-0.429
Mof_N 	N 	0.69964	0.48231	0.79327	1.148
Mof_N 	N 	0.78005	0.53877	0.15236	1.01
Mof_N 	N 	0.81981	0.5001	0.89032	0.845
Mof_H 	H 	0.66777	0.52818	0.1227	-0.691
Mof_H 	H 	0.70085	0.49601	0.73668	-1.22
Mof_H 	H 	0.77801	0.52517	0.20696	-1.172
Mof_H 	H 	0.81109	0.49299	0.82093	-0.928
Mof_H 	H 	0.65244	0.49146	0.76716	-0.194
Mof_H 	H 	0.73615	0.46053	0.92372	-0.32
Mof_H 	H 	0.82841	0.52643	0.17708	0.023
Mof_H 	H 	0.74294	0.56368	0.0246	-0.053
Mof_H 	H 	0.86914	0.48681	0.9331	-0.269
Mof_H 	H 	0.79451	0.51352	0.9818	-0.43
Mof_N 	N 	0.69487	0.30646	0.58887	1.105
Mof_N 	N 	0.8216	0.18342	0.44092	1.439
Mof_N 	N 	0.81744	0.16752	0.73094	1.559
Mof_H 	H 	0.70354	0.30595	0.2491	-1.073
Mof_H 	H 	0.70008	0.29272	0.65841	-1.262
Mof_H 	H 	0.81564	0.19794	0.37188	-1.597
Mof_H 	H 	0.81217	0.18471	0.78119	-1.574
Mof_H 	H 	0.64652	0.34464	0.53109	-0.189
Mof_H 	H 	0.72504	0.28937	0.51032	-0.227
Mof_H 	H 	0.87116	0.14733	0.50029	-0.127
Mof_H 	H 	0.79073	0.19792	0.51754	-0.263
Mof_H 	H 	0.8669	0.13104	0.77293	-0.382
Mof_H 	H 	0.78534	0.1773	0.59664	-0.369
Mof_N 	N 	0.20593	0.33189	0.60123	1.2
Mof_N 	N 	0.30174	0.16225	0.35929	1.435
Mof_N 	N 	0.33153	0.19427	0.70317	1.765
Mof_H 	H 	0.18404	0.28743	0.20042	-0.994
Mof_H 	H 	0.20883	0.31407	0.65453	-1.333
Mof_H 	H 	0.298	0.18075	0.30651	-1.485
Mof_H 	H 	0.32278	0.20739	0.76063	-1.731
Mof_H 	H 	0.15755	0.36997	0.54263	-0.178
Mof_H 	H 	0.24099	0.32247	0.54192	-0.286
Mof_H 	H 	0.35113	0.12619	0.42256	-0.227
Mof_H 	H 	0.26623	0.16921	0.4136	-0.354
Mof_H 	H 	0.38164	0.15899	0.75037	-0.349
Mof_H 	H 	0.30487	0.21074	0.56254	-0.43
Mof_N 	N 	0.81761	0.66545	0.68269	1.781
Mof_N 	N 	0.69316	0.82371	0.23967	0.792
Mof_N 	N 	0.69248	0.80326	0.534	1.139
Mof_H 	H 	0.81297	0.69943	0.32073	-1.618
Mof_H 	H 	0.8124	0.68242	0.73362	-1.754
Mof_H 	H 	0.69916	0.80605	0.19098	-0.98
Mof_H 	H 	0.69859	0.78903	0.60387	-1.292
Mof_H 	H 	0.86637	0.62763	0.72802	-0.417
Mof_H 	H 	0.78676	0.67641	0.54594	-0.454
Mof_H 	H 	0.6433	0.85945	0.19547	-0.094
Mof_H 	H 	0.72461	0.81528	0.37383	-0.145
Mof_H 	H 	0.6426	0.8385	0.47252	-0.17
Mof_H 	H 	0.72373	0.78876	0.45851	-0.241
Mof_N 	N 	0.32294	0.67165	0.70612	1.471
Mof_N 	N 	0.19285	0.8122	0.28088	0.936
Mof_N 	N 	0.19122	0.80653	0.5709	1.022
Mof_H 	H 	0.31801	0.6924	0.35012	-1.566
Mof_H 	H 	0.31666	0.68769	0.75943	-1.498
Mof_H 	H 	0.19995	0.79546	0.22976	-1.145
Mof_H 	H 	0.1986	0.79075	0.63907	-1.171
Mof_H 	H 	0.37276	0.6359	0.74862	-0.429
Mof_H 	H 	0.29215	0.68317	0.56901	-0.371
Mof_H 	H 	0.14217	0.84565	0.23913	-0.161
Mof_H 	H 	0.22395	0.80344	0.41582	-0.136
Mof_H 	H 	0.1405	0.83985	0.51177	-0.275
Mof_H 	H 	0.22184	0.79609	0.49491	-0.252
_end
