data_functionalizedCrystal
_audit_creation_method	'EQeq! by Chris Wilmer'
_symmetry_space_group_name_H-M	'P1'
_symmetry_Int_Tables_number	1
_symmetry_cell_setting	triclinic
loop_
_symmetry_equiv_pos_as_xyz
  x,y,z
_cell_length_a	11.8326
_cell_length_b	11.8326
_cell_length_c	16.444
_cell_angle_alpha	73.1583
_cell_angle_beta	73.1583
_cell_angle_gamma	78.8684
loop_
_atom_site_label
_atom_site_type_symbol
_atom_site_fract_x
_atom_site_fract_y
_atom_site_fract_z
_atom_site_charge
Mof_Mn	Mn	0.83611	0.61985	0.04414	0.848
Mof_Mn	Mn	0.38015	0.16389	0.45586	0.849
Mof_Mn	Mn	0.16389	0.38015	0.95586	0.848
Mof_Mn	Mn	0.61985	0.83611	0.54414	0.849
Mof_H 	H 	0.6645	0.8135	0.2731	0.051
Mof_H 	H 	0.4519	0.1665	0.0382	0.129
Mof_H 	H 	0.5723	0.9813	0.0478	0.072
Mof_H 	H 	0.3742	0.2678	0.1725	0.099
Mof_H 	H 	0.3617	0.3299	0.077	0.095
Mof_H 	H 	0.4846	0.14	0.2472	0.074
Mof_H 	H 	0.639	0.2886	0.0098	0.117
Mof_H 	H 	0.4218	0.4632	0.1773	0.118
Mof_H 	H 	0.7746	0.416	0.9842	-0.021
Mof_H 	H 	0.5649	0.5833	0.1492	-0.021
Mof_H 	H 	0.1865	0.3355	0.2269	0.051
Mof_H 	H 	0.8335	0.5481	0.4618	0.129
Mof_H 	H 	0.0187	0.4277	0.4522	0.072
Mof_H 	H 	0.7322	0.6258	0.3275	0.099
Mof_H 	H 	0.6701	0.6383	0.423	0.095
Mof_H 	H 	0.86	0.5154	0.2528	0.074
Mof_H 	H 	0.7114	0.361	0.4902	0.117
Mof_H 	H 	0.5368	0.5782	0.3227	0.118
Mof_H 	H 	0.584	0.2254	0.5158	-0.022
Mof_H 	H 	0.4167	0.4351	0.3508	-0.021
Mof_H 	H 	0.3355	0.1865	0.7269	0.051
Mof_H 	H 	0.5481	0.8335	0.9618	0.129
Mof_H 	H 	0.4277	0.0187	0.9522	0.072
Mof_H 	H 	0.6258	0.7322	0.8275	0.099
Mof_H 	H 	0.6383	0.6701	0.923	0.095
Mof_H 	H 	0.5154	0.86	0.7528	0.074
Mof_H 	H 	0.361	0.7114	0.9902	0.117
Mof_H 	H 	0.5782	0.5368	0.8227	0.118
Mof_H 	H 	0.2254	0.584	0.0158	-0.021
Mof_H 	H 	0.4351	0.4167	0.8508	-0.021
Mof_H 	H 	0.8135	0.6645	0.7731	0.051
Mof_H 	H 	0.1665	0.4519	0.5382	0.129
Mof_H 	H 	0.9813	0.5723	0.5478	0.072
Mof_H 	H 	0.2678	0.3742	0.6725	0.099
Mof_H 	H 	0.3299	0.3617	0.577	0.095
Mof_H 	H 	0.14	0.4846	0.7472	0.074
Mof_H 	H 	0.2886	0.639	0.5098	0.117
Mof_H 	H 	0.4632	0.4218	0.6773	0.118
Mof_H 	H 	0.416	0.7746	0.4842	-0.022
Mof_H 	H 	0.5833	0.5649	0.6492	-0.021
Mof_C 	C 	0.5707	0.9737	0.2746	-0.067
Mof_C 	C 	0.5157	0.0777	0.1382	0.108
Mof_C 	C 	0.6288	0.8826	0.1534	-0.039
Mof_C 	C 	0.6272	0.8794	0.2396	-0.013
Mof_C 	C 	0.5697	0.9727	0.3667	0.361
Mof_C 	C 	0.6935	0.7827	0.1146	0.27
Mof_C 	C 	0.513	0.3598	0.0983	0.194
Mof_C 	C 	0.5724	0.9804	0.1045	-0.099
Mof_C 	C 	0.4174	0.2846	0.1112	-0.181
Mof_C 	C 	0.5182	0.0746	0.2242	-0.081
Mof_C 	C 	0.6212	0.3476	0.0401	-0.23
Mof_C 	C 	0.4945	0.4495	0.1383	-0.244
Mof_C 	C 	0.7038	0.4234	0.0266	0.136
Mof_C 	C 	0.5826	0.5212	0.1219	0.151
Mof_C 	C 	0.0263	0.4293	0.2254	-0.066
Mof_C 	C 	0.9223	0.4843	0.3618	0.107
Mof_C 	C 	0.1174	0.3712	0.3466	-0.039
Mof_C 	C 	0.1206	0.3728	0.2604	-0.013
Mof_C 	C 	0.0273	0.4303	0.1333	0.361
Mof_C 	C 	0.2173	0.3065	0.3854	0.27
Mof_C 	C 	0.6402	0.487	0.4017	0.195
Mof_C 	C 	0.0196	0.4276	0.3955	-0.098
Mof_C 	C 	0.7154	0.5826	0.3888	-0.181
Mof_C 	C 	0.9254	0.4818	0.2758	-0.082
Mof_C 	C 	0.6524	0.3788	0.4599	-0.23
Mof_C 	C 	0.5505	0.5055	0.3617	-0.244
Mof_C 	C 	0.5766	0.2962	0.4734	0.136
Mof_C 	C 	0.4788	0.4174	0.3781	0.151
Mof_C 	C 	0.4293	0.0263	0.7254	-0.067
Mof_C 	C 	0.4843	0.9223	0.8618	0.108
Mof_C 	C 	0.3712	0.1174	0.8466	-0.039
Mof_C 	C 	0.3728	0.1206	0.7604	-0.013
Mof_C 	C 	0.4303	0.0273	0.6333	0.361
Mof_C 	C 	0.3065	0.2173	0.8854	0.27
Mof_C 	C 	0.487	0.6402	0.9017	0.194
Mof_C 	C 	0.4276	0.0196	0.8955	-0.099
Mof_C 	C 	0.5826	0.7154	0.8888	-0.181
Mof_C 	C 	0.4818	0.9254	0.7758	-0.081
Mof_C 	C 	0.3788	0.6524	0.9599	-0.23
Mof_C 	C 	0.5055	0.5505	0.8617	-0.244
Mof_C 	C 	0.2962	0.5766	0.9734	0.136
Mof_C 	C 	0.4174	0.4788	0.8781	0.151
Mof_C 	C 	0.9737	0.5707	0.7746	-0.066
Mof_C 	C 	0.0777	0.5157	0.6382	0.107
Mof_C 	C 	0.8826	0.6288	0.6534	-0.039
Mof_C 	C 	0.8794	0.6272	0.7396	-0.013
Mof_C 	C 	0.9727	0.5697	0.8667	0.361
Mof_C 	C 	0.7827	0.6935	0.6146	0.27
Mof_C 	C 	0.3598	0.513	0.5983	0.195
Mof_C 	C 	0.9804	0.5724	0.6045	-0.098
Mof_C 	C 	0.2846	0.4174	0.6112	-0.181
Mof_C 	C 	0.0746	0.5182	0.7242	-0.082
Mof_C 	C 	0.3476	0.6212	0.5401	-0.23
Mof_C 	C 	0.4495	0.4945	0.6383	-0.244
Mof_C 	C 	0.4234	0.7038	0.5266	0.136
Mof_C 	C 	0.5212	0.5826	0.6219	0.151
Mof_N 	N 	0.6887	0.5069	0.0705	-0.21
Mof_N 	N 	0.4607	0.1733	0.0866	-0.177
Mof_N 	N 	0.4931	0.3113	0.4295	-0.21
Mof_N 	N 	0.8267	0.5393	0.4134	-0.177
Mof_N 	N 	0.3113	0.4931	0.9295	-0.21
Mof_N 	N 	0.5393	0.8267	0.9134	-0.177
Mof_N 	N 	0.5069	0.6887	0.5705	-0.21
Mof_N 	N 	0.1733	0.4607	0.5866	-0.177
Mof_O 	O 	0.7443	0.6929	0.1607	-0.336
Mof_O 	O 	0.6995	0.7881	0.0351	-0.323
Mof_O 	O 	0.6157	0.8777	0.4109	-0.383
Mof_O 	O 	0.5291	0.0647	0.3929	-0.399
Mof_O 	O 	0.3071	0.2557	0.3393	-0.336
Mof_O 	O 	0.2119	0.3005	0.4649	-0.323
Mof_O 	O 	0.1223	0.3843	0.0891	-0.382
Mof_O 	O 	0.9353	0.4709	0.1071	-0.399
Mof_O 	O 	0.2557	0.3071	0.8393	-0.336
Mof_O 	O 	0.3005	0.2119	0.9649	-0.323
Mof_O 	O 	0.3843	0.1223	0.5891	-0.383
Mof_O 	O 	0.4709	0.9353	0.6071	-0.399
Mof_O 	O 	0.6929	0.7443	0.6607	-0.336
Mof_O 	O 	0.7881	0.6995	0.5351	-0.323
Mof_O 	O 	0.8777	0.6157	0.9109	-0.382
Mof_O 	O 	0.0647	0.5291	0.8929	-0.399
_end
