data_functionalizedCrystal
_audit_creation_method	'EQeq! by Chris Wilmer'
_symmetry_space_group_name_H-M	'P1'
_symmetry_Int_Tables_number	1
_symmetry_cell_setting	triclinic
loop_
_symmetry_equiv_pos_as_xyz
  x,y,z
_cell_length_a	12.7035
_cell_length_b	22.6591
_cell_length_c	22.6591
_cell_angle_alpha	90
_cell_angle_beta	90
_cell_angle_gamma	90
loop_
_atom_site_label
_atom_site_type_symbol
_atom_site_fract_x
_atom_site_fract_y
_atom_site_fract_z
_atom_site_charge
Mof_Co	Co	0.75288	0.74312	0.73755	1.157
Mof_Co	Co	0.75288	0.25688	0.26245	1.157
Mof_Co	Co	0.24712	0.75688	0.23755	1.157
Mof_Co	Co	0.24712	0.24312	0.76245	1.157
Mof_H 	H 	0.4754	0.8649	0.7741	0.047
Mof_H 	H 	0.5516	0.1107	0.722	0.088
Mof_H 	H 	0.9389	0.7758	0.3745	0.088
Mof_H 	H 	0.3788	0.9524	0.7729	0.053
Mof_H 	H 	0.1098	0.6954	0.5252	0.053
Mof_H 	H 	0.2617	0.6856	0.3508	-0.006
Mof_H 	H 	0.4595	0.1984	0.7332	0.013
Mof_H 	H 	0.698	0.9416	0.6719	0.042
Mof_H 	H 	0.0388	0.7902	0.2909	0.005
Mof_H 	H 	0.19	0.1134	0.7384	-0.008
Mof_H 	H 	0.2739	0.0237	0.729	0.075
Mof_H 	H 	0.6003	0.0285	0.6705	0.06
Mof_H 	H 	0.747	0.7246	0.5275	0.043
Mof_H 	H 	0.8367	0.7275	0.4381	0.064
Mof_H 	H 	0.0207	0.6938	0.6138	0.05
Mof_H 	H 	0.1668	0.6666	0.4354	0.076
Mof_H 	H 	0.4754	0.1351	0.2259	0.048
Mof_H 	H 	0.5516	0.8893	0.278	0.089
Mof_H 	H 	0.9389	0.2242	0.6255	0.089
Mof_H 	H 	0.3788	0.0476	0.2271	0.054
Mof_H 	H 	0.1098	0.3046	0.4748	0.053
Mof_H 	H 	0.2617	0.3144	0.6492	-0.006
Mof_H 	H 	0.4595	0.8016	0.2668	0.013
Mof_H 	H 	0.698	0.0584	0.3281	0.042
Mof_H 	H 	0.0388	0.2098	0.7091	0.005
Mof_H 	H 	0.19	0.8866	0.2616	-0.008
Mof_H 	H 	0.2739	0.9763	0.271	0.075
Mof_H 	H 	0.6003	0.9715	0.3295	0.06
Mof_H 	H 	0.747	0.2754	0.4725	0.043
Mof_H 	H 	0.8367	0.2725	0.5619	0.064
Mof_H 	H 	0.0207	0.3062	0.3862	0.05
Mof_H 	H 	0.1668	0.3334	0.5646	0.076
Mof_H 	H 	0.5246	0.6351	0.2741	0.048
Mof_H 	H 	0.4484	0.3893	0.222	0.089
Mof_H 	H 	0.0611	0.7242	0.8745	0.089
Mof_H 	H 	0.6212	0.5476	0.2729	0.054
Mof_H 	H 	0.8902	0.8046	0.0252	0.053
Mof_H 	H 	0.7383	0.8144	0.8508	-0.006
Mof_H 	H 	0.5405	0.3016	0.2332	0.013
Mof_H 	H 	0.302	0.5584	0.1719	0.042
Mof_H 	H 	0.9612	0.7098	0.7909	0.005
Mof_H 	H 	0.81	0.3866	0.2384	-0.008
Mof_H 	H 	0.7261	0.4763	0.229	0.075
Mof_H 	H 	0.3997	0.4715	0.1705	0.06
Mof_H 	H 	0.253	0.7754	0.0275	0.043
Mof_H 	H 	0.1633	0.7725	0.9381	0.064
Mof_H 	H 	0.9793	0.8062	0.1138	0.05
Mof_H 	H 	0.8332	0.8334	0.9354	0.076
Mof_H 	H 	0.5246	0.3649	0.7259	0.048
Mof_H 	H 	0.4484	0.6107	0.778	0.089
Mof_H 	H 	0.0611	0.2758	0.1255	0.089
Mof_H 	H 	0.6212	0.4524	0.7271	0.054
Mof_H 	H 	0.8902	0.1954	0.9748	0.053
Mof_H 	H 	0.7383	0.1856	0.1492	-0.006
Mof_H 	H 	0.5405	0.6984	0.7668	0.013
Mof_H 	H 	0.302	0.4416	0.8281	0.042
Mof_H 	H 	0.9612	0.2902	0.2091	0.005
Mof_H 	H 	0.81	0.6134	0.7616	-0.008
Mof_H 	H 	0.7261	0.5237	0.771	0.075
Mof_H 	H 	0.3997	0.5285	0.8295	0.06
Mof_H 	H 	0.253	0.2246	0.9725	0.043
Mof_H 	H 	0.1633	0.2275	0.0619	0.064
Mof_H 	H 	0.9793	0.1938	0.8862	0.05
Mof_H 	H 	0.8332	0.1666	0.0646	0.076
Mof_C 	C 	0.6629	0.8402	0.7281	0.29
Mof_C 	C 	0.5976	0.8956	0.7238	-0.075
Mof_C 	C 	0.8754	0.7111	0.58	-0.078
Mof_C 	C 	0.4818	0.9998	0.7232	0.017
Mof_C 	C 	0.5014	0.8984	0.7536	0
Mof_C 	C 	0.8207	0.7161	0.6376	0.296
Mof_C 	C 	0.9838	0.7138	0.4721	0.014
Mof_C 	C 	0.0429	0.7212	0.4157	0.073
Mof_C 	C 	0.4238	0.0568	0.7259	0.071
Mof_C 	C 	0.4772	0.11	0.7263	-0.129
Mof_C 	C 	0.0055	0.7571	0.3709	-0.138
Mof_C 	C 	0.4444	0.9504	0.7529	-0.073
Mof_C 	C 	0.0361	0.7024	0.5256	-0.073
Mof_C 	C 	0.1952	0.7041	0.3557	0.079
Mof_C 	C 	0.4215	0.1623	0.733	0.07
Mof_C 	C 	0.6334	0.9438	0.6929	0.006
Mof_C 	C 	0.0654	0.7652	0.3211	0.071
Mof_C 	C 	0.2646	0.1127	0.7362	0.078
Mof_C 	C 	0.3141	0.059	0.7302	-0.134
Mof_C 	C 	0.5755	0.9955	0.6923	-0.076
Mof_C 	C 	0.8213	0.7197	0.527	0.01
Mof_C 	C 	0.8745	0.7213	0.4738	-0.077
Mof_C 	C 	0.9833	0.7013	0.5782	0.005
Mof_C 	C 	0.1397	0.6931	0.4066	-0.137
Mof_C 	C 	0.6629	0.1598	0.2719	0.29
Mof_C 	C 	0.5976	0.1044	0.2762	-0.075
Mof_C 	C 	0.8754	0.2889	0.42	-0.078
Mof_C 	C 	0.4818	0.0002	0.2768	0.017
Mof_C 	C 	0.5014	0.1016	0.2464	0
Mof_C 	C 	0.8207	0.2839	0.3624	0.296
Mof_C 	C 	0.9838	0.2862	0.5279	0.014
Mof_C 	C 	0.0429	0.2788	0.5843	0.073
Mof_C 	C 	0.4238	0.9432	0.2741	0.071
Mof_C 	C 	0.4772	0.89	0.2737	-0.129
Mof_C 	C 	0.0055	0.2429	0.6291	-0.138
Mof_C 	C 	0.4444	0.0496	0.2471	-0.073
Mof_C 	C 	0.0361	0.2976	0.4744	-0.073
Mof_C 	C 	0.1952	0.2959	0.6443	0.079
Mof_C 	C 	0.4215	0.8377	0.267	0.07
Mof_C 	C 	0.6334	0.0562	0.3071	0.006
Mof_C 	C 	0.0654	0.2348	0.6789	0.071
Mof_C 	C 	0.2646	0.8873	0.2638	0.078
Mof_C 	C 	0.3141	0.941	0.2698	-0.134
Mof_C 	C 	0.5755	0.0045	0.3077	-0.076
Mof_C 	C 	0.8213	0.2803	0.473	0.01
Mof_C 	C 	0.8745	0.2787	0.5262	-0.077
Mof_C 	C 	0.9833	0.2987	0.4218	0.005
Mof_C 	C 	0.1397	0.3069	0.5934	-0.137
Mof_C 	C 	0.3371	0.6598	0.2281	0.29
Mof_C 	C 	0.4024	0.6044	0.2238	-0.075
Mof_C 	C 	0.1246	0.7889	0.08	-0.078
Mof_C 	C 	0.5182	0.5002	0.2232	0.017
Mof_C 	C 	0.4986	0.6016	0.2536	0
Mof_C 	C 	0.1793	0.7839	0.1376	0.296
Mof_C 	C 	0.0162	0.7862	0.9721	0.014
Mof_C 	C 	0.9571	0.7788	0.9157	0.073
Mof_C 	C 	0.5762	0.4432	0.2259	0.071
Mof_C 	C 	0.5228	0.39	0.2263	-0.129
Mof_C 	C 	0.9945	0.7429	0.8709	-0.138
Mof_C 	C 	0.5556	0.5496	0.2529	-0.073
Mof_C 	C 	0.9639	0.7976	0.0256	-0.074
Mof_C 	C 	0.8048	0.7959	0.8557	0.079
Mof_C 	C 	0.5785	0.3377	0.233	0.07
Mof_C 	C 	0.3666	0.5562	0.1929	0.006
Mof_C 	C 	0.9346	0.7348	0.8211	0.071
Mof_C 	C 	0.7354	0.3873	0.2362	0.078
Mof_C 	C 	0.6859	0.441	0.2302	-0.135
Mof_C 	C 	0.4245	0.5045	0.1923	-0.076
Mof_C 	C 	0.1787	0.7803	0.027	0.01
Mof_C 	C 	0.1255	0.7787	0.9738	-0.077
Mof_C 	C 	0.0167	0.7987	0.0782	0.005
Mof_C 	C 	0.8603	0.8069	0.9066	-0.137
Mof_C 	C 	0.3371	0.3402	0.7719	0.29
Mof_C 	C 	0.4024	0.3956	0.7762	-0.075
Mof_C 	C 	0.1246	0.2111	0.92	-0.078
Mof_C 	C 	0.5182	0.4998	0.7768	0.017
Mof_C 	C 	0.4986	0.3984	0.7464	0
Mof_C 	C 	0.1793	0.2161	0.8624	0.296
Mof_C 	C 	0.0162	0.2138	0.0279	0.014
Mof_C 	C 	0.9571	0.2212	0.0843	0.073
Mof_C 	C 	0.5762	0.5568	0.7741	0.071
Mof_C 	C 	0.5228	0.61	0.7737	-0.129
Mof_C 	C 	0.9945	0.2571	0.1291	-0.138
Mof_C 	C 	0.5556	0.4504	0.7471	-0.073
Mof_C 	C 	0.9639	0.2024	0.9744	-0.074
Mof_C 	C 	0.8048	0.2041	0.1443	0.079
Mof_C 	C 	0.5785	0.6623	0.767	0.07
Mof_C 	C 	0.3666	0.4438	0.8071	0.006
Mof_C 	C 	0.9346	0.2652	0.1789	0.071
Mof_C 	C 	0.7354	0.6127	0.7638	0.078
Mof_C 	C 	0.6859	0.559	0.7698	-0.135
Mof_C 	C 	0.4245	0.4955	0.8077	-0.076
Mof_C 	C 	0.1787	0.2197	0.973	0.01
Mof_C 	C 	0.1255	0.2213	0.0262	-0.077
Mof_C 	C 	0.0167	0.2013	0.9218	0.005
Mof_C 	C 	0.8603	0.1931	0.0934	-0.137
Mof_N 	N 	0.3168	0.16428	0.73915	-0.246
Mof_N 	N 	0.1604	0.73956	0.31293	-0.247
Mof_N 	N 	0.3168	0.83572	0.26085	-0.246
Mof_N 	N 	0.1604	0.26044	0.68707	-0.247
Mof_N 	N 	0.6832	0.33572	0.23915	-0.246
Mof_N 	N 	0.8396	0.76044	0.81293	-0.247
Mof_N 	N 	0.6832	0.66428	0.76085	-0.246
Mof_N 	N 	0.8396	0.23956	0.18707	-0.247
Mof_O 	O 	0.874	0.71679	0.68447	-0.4
Mof_O 	O 	0.6229	0.79475	0.75263	-0.396
Mof_O 	O 	0.7546	0.83922	0.70802	-0.358
Mof_O 	O 	0.7211	0.72263	0.6397	-0.346
Mof_O 	O 	0.874	0.28321	0.31553	-0.4
Mof_O 	O 	0.6229	0.20525	0.24737	-0.396
Mof_O 	O 	0.7546	0.16078	0.29198	-0.358
Mof_O 	O 	0.7211	0.27737	0.3603	-0.346
Mof_O 	O 	0.126	0.78321	0.18447	-0.4
Mof_O 	O 	0.3771	0.70525	0.25263	-0.396
Mof_O 	O 	0.2454	0.66078	0.20802	-0.358
Mof_O 	O 	0.2789	0.77737	0.1397	-0.346
Mof_O 	O 	0.126	0.21679	0.81553	-0.4
Mof_O 	O 	0.3771	0.29475	0.74737	-0.396
Mof_O 	O 	0.2454	0.33922	0.79198	-0.358
Mof_O 	O 	0.2789	0.22263	0.8603	-0.346
Mof_Co	Co	0.75288	0.76245	0.24312	1.158
Mof_Co	Co	0.75288	0.23755	0.75688	1.158
Mof_Co	Co	0.24712	0.73755	0.74312	1.158
Mof_Co	Co	0.24712	0.26245	0.25688	1.158
Mof_H 	H 	0.4754	0.7259	0.3649	0.048
Mof_H 	H 	0.5516	0.778	0.6107	0.089
Mof_H 	H 	0.9389	0.1255	0.2758	0.089
Mof_H 	H 	0.3788	0.7271	0.4524	0.054
Mof_H 	H 	0.1098	0.9748	0.1954	0.053
Mof_H 	H 	0.2617	0.1492	0.1856	-0.006
Mof_H 	H 	0.4595	0.7668	0.6984	0.013
Mof_H 	H 	0.698	0.8281	0.4416	0.042
Mof_H 	H 	0.0388	0.2091	0.2902	0.005
Mof_H 	H 	0.19	0.7616	0.6134	-0.008
Mof_H 	H 	0.2739	0.771	0.5237	0.075
Mof_H 	H 	0.6003	0.8295	0.5285	0.06
Mof_H 	H 	0.747	0.9725	0.2246	0.043
Mof_H 	H 	0.8367	0.0619	0.2275	0.064
Mof_H 	H 	0.0207	0.8862	0.1938	0.05
Mof_H 	H 	0.1668	0.0646	0.1666	0.076
Mof_H 	H 	0.4754	0.2741	0.6351	0.048
Mof_H 	H 	0.5516	0.222	0.3893	0.089
Mof_H 	H 	0.9389	0.8745	0.7242	0.089
Mof_H 	H 	0.3788	0.2729	0.5476	0.054
Mof_H 	H 	0.1098	0.0252	0.8046	0.053
Mof_H 	H 	0.2617	0.8508	0.8144	-0.006
Mof_H 	H 	0.4595	0.2332	0.3016	0.013
Mof_H 	H 	0.698	0.1719	0.5584	0.042
Mof_H 	H 	0.0388	0.7909	0.7098	0.005
Mof_H 	H 	0.19	0.2384	0.3866	-0.008
Mof_H 	H 	0.2739	0.229	0.4763	0.075
Mof_H 	H 	0.6003	0.1705	0.4715	0.06
Mof_H 	H 	0.747	0.0275	0.7754	0.043
Mof_H 	H 	0.8367	0.9381	0.7725	0.064
Mof_H 	H 	0.0207	0.1138	0.8062	0.05
Mof_H 	H 	0.1668	0.9354	0.8334	0.076
Mof_H 	H 	0.5246	0.7741	0.8649	0.048
Mof_H 	H 	0.4484	0.722	0.1107	0.089
Mof_H 	H 	0.0611	0.3745	0.7758	0.089
Mof_H 	H 	0.6212	0.7729	0.9524	0.054
Mof_H 	H 	0.8902	0.5252	0.6954	0.053
Mof_H 	H 	0.7383	0.3508	0.6856	-0.006
Mof_H 	H 	0.5405	0.7332	0.1984	0.013
Mof_H 	H 	0.302	0.6719	0.9416	0.042
Mof_H 	H 	0.9612	0.2909	0.7902	0.005
Mof_H 	H 	0.81	0.7384	0.1134	-0.008
Mof_H 	H 	0.7261	0.729	0.0237	0.075
Mof_H 	H 	0.3997	0.6705	0.0285	0.06
Mof_H 	H 	0.253	0.5275	0.7246	0.043
Mof_H 	H 	0.1633	0.4381	0.7275	0.064
Mof_H 	H 	0.9793	0.6138	0.6938	0.05
Mof_H 	H 	0.8332	0.4354	0.6666	0.076
Mof_H 	H 	0.5246	0.2259	0.1351	0.048
Mof_H 	H 	0.4484	0.278	0.8893	0.089
Mof_H 	H 	0.0611	0.6255	0.2242	0.089
Mof_H 	H 	0.6212	0.2271	0.0476	0.054
Mof_H 	H 	0.8902	0.4748	0.3046	0.053
Mof_H 	H 	0.7383	0.6492	0.3144	-0.006
Mof_H 	H 	0.5405	0.2668	0.8016	0.013
Mof_H 	H 	0.302	0.3281	0.0584	0.042
Mof_H 	H 	0.9612	0.7091	0.2098	0.005
Mof_H 	H 	0.81	0.2616	0.8866	-0.008
Mof_H 	H 	0.7261	0.271	0.9763	0.075
Mof_H 	H 	0.3997	0.3295	0.9715	0.06
Mof_H 	H 	0.253	0.4725	0.2754	0.043
Mof_H 	H 	0.1633	0.5619	0.2725	0.064
Mof_H 	H 	0.9793	0.3862	0.3062	0.05
Mof_H 	H 	0.8332	0.5646	0.3334	0.076
Mof_C 	C 	0.6629	0.7719	0.3402	0.29
Mof_C 	C 	0.5976	0.7762	0.3956	-0.075
Mof_C 	C 	0.8754	0.92	0.2111	-0.078
Mof_C 	C 	0.4818	0.7768	0.4998	0.017
Mof_C 	C 	0.5014	0.7464	0.3984	0
Mof_C 	C 	0.8207	0.8624	0.2161	0.296
Mof_C 	C 	0.9838	0.0279	0.2138	0.014
Mof_C 	C 	0.0429	0.0843	0.2212	0.073
Mof_C 	C 	0.4238	0.7741	0.5568	0.071
Mof_C 	C 	0.4772	0.7737	0.61	-0.129
Mof_C 	C 	0.0055	0.1291	0.2571	-0.138
Mof_C 	C 	0.4444	0.7471	0.4504	-0.073
Mof_C 	C 	0.0361	0.9744	0.2024	-0.074
Mof_C 	C 	0.1952	0.1443	0.2041	0.079
Mof_C 	C 	0.4215	0.767	0.6623	0.07
Mof_C 	C 	0.6334	0.8071	0.4438	0.006
Mof_C 	C 	0.0654	0.1789	0.2652	0.071
Mof_C 	C 	0.2646	0.7638	0.6127	0.078
Mof_C 	C 	0.3141	0.7698	0.559	-0.135
Mof_C 	C 	0.5755	0.8077	0.4955	-0.076
Mof_C 	C 	0.8213	0.973	0.2197	0.01
Mof_C 	C 	0.8745	0.0262	0.2213	-0.077
Mof_C 	C 	0.9833	0.9218	0.2013	0.005
Mof_C 	C 	0.1397	0.0934	0.1931	-0.137
Mof_C 	C 	0.6629	0.2281	0.6598	0.29
Mof_C 	C 	0.5976	0.2238	0.6044	-0.075
Mof_C 	C 	0.8754	0.08	0.7889	-0.078
Mof_C 	C 	0.4818	0.2232	0.5002	0.017
Mof_C 	C 	0.5014	0.2536	0.6016	0
Mof_C 	C 	0.8207	0.1376	0.7839	0.296
Mof_C 	C 	0.9838	0.9721	0.7862	0.014
Mof_C 	C 	0.0429	0.9157	0.7788	0.073
Mof_C 	C 	0.4238	0.2259	0.4432	0.071
Mof_C 	C 	0.4772	0.2263	0.39	-0.129
Mof_C 	C 	0.0055	0.8709	0.7429	-0.138
Mof_C 	C 	0.4444	0.2529	0.5496	-0.073
Mof_C 	C 	0.0361	0.0256	0.7976	-0.074
Mof_C 	C 	0.1952	0.8557	0.7959	0.079
Mof_C 	C 	0.4215	0.233	0.3377	0.07
Mof_C 	C 	0.6334	0.1929	0.5562	0.006
Mof_C 	C 	0.0654	0.8211	0.7348	0.071
Mof_C 	C 	0.2646	0.2362	0.3873	0.078
Mof_C 	C 	0.3141	0.2302	0.441	-0.135
Mof_C 	C 	0.5755	0.1923	0.5045	-0.076
Mof_C 	C 	0.8213	0.027	0.7803	0.01
Mof_C 	C 	0.8745	0.9738	0.7787	-0.077
Mof_C 	C 	0.9833	0.0782	0.7987	0.005
Mof_C 	C 	0.1397	0.9066	0.8069	-0.137
Mof_C 	C 	0.3371	0.7281	0.8402	0.29
Mof_C 	C 	0.4024	0.7238	0.8956	-0.075
Mof_C 	C 	0.1246	0.58	0.7111	-0.078
Mof_C 	C 	0.5182	0.7232	0.9998	0.017
Mof_C 	C 	0.4986	0.7536	0.8984	0
Mof_C 	C 	0.1793	0.6376	0.7161	0.296
Mof_C 	C 	0.0162	0.4721	0.7138	0.014
Mof_C 	C 	0.9571	0.4157	0.7212	0.073
Mof_C 	C 	0.5762	0.7259	0.0568	0.071
Mof_C 	C 	0.5228	0.7263	0.11	-0.129
Mof_C 	C 	0.9945	0.3709	0.7571	-0.138
Mof_C 	C 	0.5556	0.7529	0.9504	-0.073
Mof_C 	C 	0.9639	0.5256	0.7024	-0.073
Mof_C 	C 	0.8048	0.3557	0.7041	0.079
Mof_C 	C 	0.5785	0.733	0.1623	0.07
Mof_C 	C 	0.3666	0.6929	0.9438	0.006
Mof_C 	C 	0.9346	0.3211	0.7652	0.071
Mof_C 	C 	0.7354	0.7362	0.1127	0.078
Mof_C 	C 	0.6859	0.7302	0.059	-0.134
Mof_C 	C 	0.4245	0.6923	0.9955	-0.076
Mof_C 	C 	0.1787	0.527	0.7197	0.01
Mof_C 	C 	0.1255	0.4738	0.7213	-0.077
Mof_C 	C 	0.0167	0.5782	0.7013	0.005
Mof_C 	C 	0.8603	0.4066	0.6931	-0.137
Mof_C 	C 	0.3371	0.2719	0.1598	0.29
Mof_C 	C 	0.4024	0.2762	0.1044	-0.075
Mof_C 	C 	0.1246	0.42	0.2889	-0.078
Mof_C 	C 	0.5182	0.2768	0.0002	0.017
Mof_C 	C 	0.4986	0.2464	0.1016	0
Mof_C 	C 	0.1793	0.3624	0.2839	0.296
Mof_C 	C 	0.0162	0.5279	0.2862	0.014
Mof_C 	C 	0.9571	0.5843	0.2788	0.073
Mof_C 	C 	0.5762	0.2741	0.9432	0.071
Mof_C 	C 	0.5228	0.2737	0.89	-0.129
Mof_C 	C 	0.9945	0.6291	0.2429	-0.138
Mof_C 	C 	0.5556	0.2471	0.0496	-0.073
Mof_C 	C 	0.9639	0.4744	0.2976	-0.073
Mof_C 	C 	0.8048	0.6443	0.2959	0.079
Mof_C 	C 	0.5785	0.267	0.8377	0.07
Mof_C 	C 	0.3666	0.3071	0.0562	0.006
Mof_C 	C 	0.9346	0.6789	0.2348	0.071
Mof_C 	C 	0.7354	0.2638	0.8873	0.078
Mof_C 	C 	0.6859	0.2698	0.941	-0.134
Mof_C 	C 	0.4245	0.3077	0.0045	-0.076
Mof_C 	C 	0.1787	0.473	0.2803	0.01
Mof_C 	C 	0.1255	0.5262	0.2787	-0.077
Mof_C 	C 	0.0167	0.4218	0.2987	0.005
Mof_C 	C 	0.8603	0.5934	0.3069	-0.137
Mof_N 	N 	0.3168	0.76085	0.66428	-0.246
Mof_N 	N 	0.1604	0.18707	0.23956	-0.247
Mof_N 	N 	0.3168	0.23915	0.33572	-0.246
Mof_N 	N 	0.1604	0.81293	0.76044	-0.247
Mof_N 	N 	0.6832	0.73915	0.16428	-0.246
Mof_N 	N 	0.8396	0.31293	0.73956	-0.247
Mof_N 	N 	0.6832	0.26085	0.83572	-0.246
Mof_N 	N 	0.8396	0.68707	0.26044	-0.247
Mof_O 	O 	0.874	0.81553	0.21679	-0.4
Mof_O 	O 	0.6229	0.74737	0.29475	-0.396
Mof_O 	O 	0.7546	0.79198	0.33922	-0.358
Mof_O 	O 	0.7211	0.8603	0.22263	-0.346
Mof_O 	O 	0.874	0.18447	0.78321	-0.4
Mof_O 	O 	0.6229	0.25263	0.70525	-0.396
Mof_O 	O 	0.7546	0.20802	0.66078	-0.358
Mof_O 	O 	0.7211	0.1397	0.77737	-0.346
Mof_O 	O 	0.126	0.68447	0.71679	-0.4
Mof_O 	O 	0.3771	0.75263	0.79475	-0.396
Mof_O 	O 	0.2454	0.70802	0.83922	-0.358
Mof_O 	O 	0.2789	0.6397	0.72263	-0.346
Mof_O 	O 	0.126	0.31553	0.28321	-0.4
Mof_O 	O 	0.3771	0.24737	0.20525	-0.396
Mof_O 	O 	0.2454	0.29198	0.16078	-0.358
Mof_O 	O 	0.2789	0.3603	0.27737	-0.346
_end
