data_functionalizedCrystal
_audit_creation_method	'EQeq! by Chris Wilmer'
_symmetry_space_group_name_H-M	'P1'
_symmetry_Int_Tables_number	1
_symmetry_cell_setting	triclinic
loop_
_symmetry_equiv_pos_as_xyz
  x,y,z
_cell_length_a	13.4678
_cell_length_b	13.4678
_cell_length_c	18.3171
_cell_angle_alpha	90
_cell_angle_beta	90
_cell_angle_gamma	120
loop_
_atom_site_label
_atom_site_type_symbol
_atom_site_fract_x
_atom_site_fract_y
_atom_site_fract_z
_atom_site_charge
Mof_V 	V 	0.43529	0.14332	0.45823	1.728
Mof_P 	P 	0.18832	0.02928	0.37115	0.219
Mof_H 	H 	0.193	0.932	0.347	0.052
Mof_P 	P 	0.49605	0.36972	0.55432	0.472
Mof_H 	H 	0.501	0.313	0.62	-0.022
Mof_O 	O 	0.3088	0.124	0.39168	-0.48
Mof_O 	O 	0.4331	0.2825	0.49394	-0.523
Mof_O 	O 	0.6191	0.4533	0.53504	-0.504
Mof_O 	O 	0.4285	0.4275	0.5765	-0.486
Mof_O 	O 	0.5529	0.2276	0.38396	-0.509
Mof_O 	O 	0.1115	0.9786	0.43833	-0.37
Mof_O 	O 	0.1411	0.0748	0.31273	-0.509
Mof_V 	V 	0.85668	0.29197	0.45823	1.796
Mof_P 	P 	0.97072	0.15904	0.37115	0.698
Mof_H 	H 	0.068	0.261	0.347	-0.131
Mof_P 	P 	0.63028	0.12633	0.55432	0.469
Mof_H 	H 	0.687	0.188	0.62	-0.017
Mof_O 	O 	0.876	0.1848	0.39168	-0.478
Mof_O 	O 	0.7175	0.1506	0.49394	-0.535
Mof_O 	O 	0.5467	0.1658	0.53504	-0.538
Mof_O 	O 	0.5725	0.001	0.5765	-0.591
Mof_O 	O 	0.7724	0.3253	0.38396	-0.456
Mof_O 	O 	0.0214	0.1329	0.43833	-0.673
Mof_O 	O 	0.9252	0.0663	0.31273	-0.482
Mof_V 	V 	0.70803	0.56471	0.45823	1.763
Mof_P 	P 	0.84096	0.81168	0.37115	0.456
Mof_H 	H 	0.739	0.807	0.347	-0.007
Mof_P 	P 	0.87367	0.50395	0.55432	0.477
Mof_H 	H 	0.812	0.499	0.62	-0.004
Mof_O 	O 	0.8152	0.6912	0.39168	-0.444
Mof_O 	O 	0.8494	0.5669	0.49394	-0.482
Mof_O 	O 	0.8342	0.3809	0.53504	-0.473
Mof_O 	O 	0.999	0.5715	0.5765	-0.378
Mof_O 	O 	0.6747	0.4471	0.38396	-0.471
Mof_O 	O 	0.8671	0.8885	0.43833	-0.376
Mof_O 	O 	0.9337	0.8589	0.31273	-0.32
Mof_V 	V 	0.14332	0.43529	0.04177	1.714
Mof_P 	P 	0.02928	0.18832	0.12885	0.204
Mof_H 	H 	0.932	0.193	0.153	0.055
Mof_P 	P 	0.36972	0.49605	0.94568	0.511
Mof_H 	H 	0.313	0.501	0.88	-0.023
Mof_O 	O 	0.124	0.3088	0.10832	-0.485
Mof_O 	O 	0.2825	0.4331	0.00606	-0.567
Mof_O 	O 	0.4533	0.6191	0.96496	-0.483
Mof_O 	O 	0.4275	0.4285	0.9235	-0.479
Mof_O 	O 	0.2276	0.5529	0.11604	-0.517
Mof_O 	O 	0.9786	0.1115	0.06167	-0.372
Mof_O 	O 	0.0748	0.1411	0.18727	-0.508
Mof_V 	V 	0.29197	0.85668	0.04177	1.782
Mof_P 	P 	0.15904	0.97072	0.12885	0.684
Mof_H 	H 	0.261	0.068	0.153	-0.128
Mof_P 	P 	0.12633	0.63028	0.94568	0.51
Mof_H 	H 	0.188	0.687	0.88	-0.017
Mof_O 	O 	0.1848	0.876	0.10832	-0.486
Mof_O 	O 	0.1506	0.7175	0.00606	-0.584
Mof_O 	O 	0.1658	0.5467	0.96496	-0.515
Mof_O 	O 	0.001	0.5725	0.9235	-0.58
Mof_O 	O 	0.3253	0.7724	0.11604	-0.465
Mof_O 	O 	0.1329	0.0214	0.06167	-0.684
Mof_O 	O 	0.0663	0.9252	0.18727	-0.488
Mof_V 	V 	0.56471	0.70803	0.04177	1.752
Mof_P 	P 	0.81168	0.84096	0.12885	0.455
Mof_H 	H 	0.807	0.739	0.153	-0.008
Mof_P 	P 	0.50395	0.87367	0.94568	0.514
Mof_H 	H 	0.499	0.812	0.88	-0.004
Mof_O 	O 	0.6912	0.8152	0.10832	-0.45
Mof_O 	O 	0.5669	0.8494	0.00606	-0.527
Mof_O 	O 	0.3809	0.8342	0.96496	-0.45
Mof_O 	O 	0.5715	0.999	0.9235	-0.371
Mof_O 	O 	0.4471	0.6747	0.11604	-0.477
Mof_O 	O 	0.8885	0.8671	0.06167	-0.392
Mof_O 	O 	0.8589	0.9337	0.18727	-0.322
Mof_V 	V 	0.56471	0.85668	0.54177	1.795
Mof_P 	P 	0.81168	0.97072	0.62885	0.669
Mof_H 	H 	0.807	0.068	0.653	-0.097
Mof_P 	P 	0.50395	0.63028	0.44568	0.473
Mof_H 	H 	0.499	0.687	0.38	-0.007
Mof_O 	O 	0.6912	0.876	0.60832	-0.454
Mof_O 	O 	0.5669	0.7175	0.50606	-0.504
Mof_O 	O 	0.3809	0.5467	0.46496	-0.506
Mof_O 	O 	0.5715	0.5725	0.4235	-0.484
Mof_O 	O 	0.4471	0.7724	0.61604	-0.449
Mof_O 	O 	0.8885	0.0214	0.56167	-0.551
Mof_O 	O 	0.8589	0.9252	0.68727	-0.371
Mof_V 	V 	0.14332	0.70803	0.54177	1.73
Mof_P 	P 	0.02928	0.84096	0.62885	0.24
Mof_H 	H 	0.932	0.739	0.653	0.063
Mof_P 	P 	0.36972	0.87367	0.44568	0.476
Mof_H 	H 	0.313	0.812	0.38	-0.011
Mof_O 	O 	0.124	0.8152	0.60832	-0.455
Mof_O 	O 	0.2825	0.8494	0.50606	-0.49
Mof_O 	O 	0.4533	0.8342	0.46496	-0.473
Mof_O 	O 	0.4275	0.999	0.4235	-0.378
Mof_O 	O 	0.2276	0.6747	0.61604	-0.5
Mof_O 	O 	0.9786	0.8671	0.56167	-0.29
Mof_O 	O 	0.0748	0.9337	0.68727	-0.378
Mof_V 	V 	0.29197	0.43529	0.54177	1.76
Mof_P 	P 	0.15904	0.18832	0.62885	0.452
Mof_H 	H 	0.261	0.193	0.653	-0.05
Mof_P 	P 	0.12633	0.49605	0.44568	0.469
Mof_H 	H 	0.188	0.501	0.38	-0.025
Mof_O 	O 	0.1848	0.3088	0.60832	-0.491
Mof_O 	O 	0.1506	0.4331	0.50606	-0.546
Mof_O 	O 	0.1658	0.6191	0.46496	-0.537
Mof_O 	O 	0.001	0.4285	0.4235	-0.596
Mof_O 	O 	0.3253	0.5529	0.61604	-0.487
Mof_O 	O 	0.1329	0.1115	0.56167	-0.574
Mof_O 	O 	0.0663	0.1411	0.68727	-0.561
Mof_V 	V 	0.85668	0.56471	0.95823	1.803
Mof_P 	P 	0.97072	0.81168	0.87115	0.659
Mof_H 	H 	0.068	0.807	0.847	-0.089
Mof_P 	P 	0.63028	0.50395	0.05432	0.44
Mof_H 	H 	0.687	0.499	0.12	-0.006
Mof_O 	O 	0.876	0.6912	0.89168	-0.449
Mof_O 	O 	0.7175	0.5669	0.99394	-0.465
Mof_O 	O 	0.5467	0.3809	0.03504	-0.525
Mof_O 	O 	0.5725	0.5715	0.0765	-0.491
Mof_O 	O 	0.7724	0.4471	0.88396	-0.445
Mof_O 	O 	0.0214	0.8885	0.93833	-0.52
Mof_O 	O 	0.9252	0.8589	0.81273	-0.37
Mof_V 	V 	0.70803	0.14332	0.95823	1.739
Mof_P 	P 	0.84096	0.02928	0.87115	0.236
Mof_H 	H 	0.739	0.932	0.847	0.068
Mof_P 	P 	0.87367	0.36972	0.05432	0.448
Mof_H 	H 	0.812	0.313	0.12	-0.009
Mof_O 	O 	0.8152	0.124	0.89168	-0.451
Mof_O 	O 	0.8494	0.2825	0.99394	-0.456
Mof_O 	O 	0.8342	0.4533	0.03504	-0.491
Mof_O 	O 	0.999	0.4275	0.0765	-0.379
Mof_O 	O 	0.6747	0.2276	0.88396	-0.496
Mof_O 	O 	0.8671	0.9786	0.93833	-0.269
Mof_O 	O 	0.9337	0.0748	0.81273	-0.381
Mof_V 	V 	0.43529	0.29197	0.95823	1.771
Mof_P 	P 	0.18832	0.15904	0.87115	0.452
Mof_H 	H 	0.193	0.261	0.847	-0.046
Mof_P 	P 	0.49605	0.12633	0.05432	0.435
Mof_H 	H 	0.501	0.188	0.12	-0.024
Mof_O 	O 	0.3088	0.1848	0.89168	-0.486
Mof_O 	O 	0.4331	0.1506	0.99394	-0.505
Mof_O 	O 	0.6191	0.1658	0.03504	-0.553
Mof_O 	O 	0.4285	0.001	0.0765	-0.597
Mof_O 	O 	0.5529	0.3253	0.88396	-0.482
Mof_O 	O 	0.1115	0.1329	0.93833	-0.549
Mof_O 	O 	0.1411	0.0663	0.81273	-0.561
Mof_V 	V 	1.75469e-32	0	0.5	1.649
Mof_V 	V 	-0	0	-0	1.628
Mof_V 	V 	8.77344e-33	0	0.25	1.644
Mof_V 	V 	-0	-1.75469e-32	0.75	1.646
Mof_P 	P 	0.66667	0.33333	0.36331	0.5
Mof_H 	H 	0.66667	0.33333	0.29123	-0.014
Mof_P 	P 	0.33333	0.66667	0.13669	0.497
Mof_H 	H 	0.33333	0.66667	0.20877	-0.014
Mof_P 	P 	0.33333	0.66667	0.63669	0.501
Mof_H 	H 	0.33333	0.66667	0.70877	-0.013
Mof_P 	P 	0.66667	0.33333	0.86331	0.503
Mof_H 	H 	0.66667	0.33333	0.79123	-0.015
_end
