# CIF file generated by openbabel 3.1.0, see https://openbabel.org
data_I
_chemical_name_common 'image0'
_cell_length_a 15.9082
_cell_length_b 15.9082
_cell_length_c 21.6184
_cell_angle_alpha 90
_cell_angle_beta 90
_cell_angle_gamma 90
_space_group_name_H-M_alt 'P 1'
_space_group_name_Hall 'P 1'
loop_
    _symmetry_equiv_pos_as_xyz
    x,y,z
loop_
    _atom_site_label
    _atom_site_type_symbol
    _atom_site_fract_x
    _atom_site_fract_y
    _atom_site_fract_z
    _atom_site_occupancy
    C1       C        0.91340    0.85940    0.35880    1.000
    H1       H        0.96230    0.88800    0.34810    1.000
    C2       C        0.88450    0.79780    0.31890    1.000
    H2       H        0.91400    0.78570    0.28280    1.000
    C3       C        0.81080    0.75370    0.33280    1.000
    C4       C        0.76810    0.78090    0.38560    1.000
    H3       H        0.71650    0.75720    0.39560    1.000
    C5       C        0.80130    0.84200    0.42280    1.000
    H4       H        0.77120    0.85810    0.45770    1.000
    C6       C        0.78000    0.68150    0.29590    1.000
    C7       C        0.80950    0.66510    0.23650    1.000
    H5       H        0.84970    0.70040    0.21900    1.000
    C8       C        0.77990    0.59730    0.20320    1.000
    H6       H        0.79970    0.58800    0.16330    1.000
    C9       C        0.72090    0.54280    0.22850    1.000
    H7       H        0.70220    0.49640    0.20630    1.000
    C10      C        0.69020    0.55880    0.28779    1.000
    C11      C        0.71980    0.62690    0.32052    1.000
    H8       H        0.69930    0.63680    0.36010    1.000
    C12      C        0.62720    0.50330    0.31857    1.000
    C13      C        0.57670    0.40830    0.38105    1.000
    C14      C        0.56870    0.33890    0.42555    1.000
    C15      C        0.49700    0.33700    0.46300    1.000
    H9       H        0.45670    0.37900    0.45950    1.000
    C16      C        0.48620    0.27320    0.50510    1.000
    H10      H        0.43880    0.27290    0.53040    1.000
    C17      C        0.54500    0.20890    0.51060    1.000
    H11      H        0.53730    0.16650    0.53960    1.000
    C18      C        0.61670    0.20840    0.47170    1.000
    C19      C        0.62710    0.27320    0.42960    1.000
    H12      H        0.67360    0.27320    0.40360    1.000
    C20      C        0.68130    0.14270    0.47790    1.000
    C21      C        0.69090    0.09500    0.53180    1.000
    H13      H        0.65350    0.10170    0.56440    1.000
    C22      C        0.75640    0.03760    0.53640    1.000
    H14      H        0.76110    0.00660    0.57270    1.000
    C23      C        0.80270    0.06700    0.43940    1.000
    H15      H        0.84040    0.05750    0.40720    1.000
    C24      C        0.73890    0.12480    0.43030    1.000
    H16      H        0.73410    0.15220    0.39250    1.000
    N1       N        0.87560    0.88020    0.41147    1.000
    N2       N        0.54560    0.50770    0.31612    1.000
    N3       N        0.51270    0.44680    0.35555    1.000
    N4       N        0.64930    0.44220    0.35865    1.000
    N5       N        0.73160    0.42140    0.37830    1.000
    H17      H        0.77600    0.45330    0.37700    1.000
    H18      H        0.75810    0.39130    0.34990    1.000
    N6       N        0.81300    0.02410    0.49202    1.000
    C25      C        0.08660    0.14060    0.85880    1.000
    H19      H        0.03770    0.11200    0.84810    1.000
    C26      C        0.11550    0.20220    0.81890    1.000
    H20      H        0.08600    0.21430    0.78280    1.000
    C27      C        0.18920    0.24630    0.83280    1.000
    C28      C        0.23190    0.21910    0.88560    1.000
    H21      H        0.28350    0.24280    0.89560    1.000
    C29      C        0.19870    0.15800    0.92280    1.000
    H22      H        0.22880    0.14190    0.95770    1.000
    C30      C        0.22000    0.31850    0.79590    1.000
    C31      C        0.19050    0.33490    0.73650    1.000
    H23      H        0.15030    0.29960    0.71900    1.000
    C32      C        0.22010    0.40270    0.70320    1.000
    H24      H        0.20030    0.41200    0.66330    1.000
    C33      C        0.27910    0.45720    0.72850    1.000
    H25      H        0.29780    0.50360    0.70630    1.000
    C34      C        0.30980    0.44120    0.78779    1.000
    C35      C        0.28020    0.37310    0.82052    1.000
    H26      H        0.30070    0.36320    0.86010    1.000
    C36      C        0.37280    0.49670    0.81857    1.000
    C37      C        0.42330    0.59170    0.88105    1.000
    C38      C        0.43130    0.66110    0.92555    1.000
    C39      C        0.50300    0.66300    0.96300    1.000
    H27      H        0.54330    0.62100    0.95950    1.000
    C40      C        0.51380    0.72680    0.00510    1.000
    H28      H        0.56120    0.72710    0.03040    1.000
    C41      C        0.45500    0.79110    0.01060    1.000
    H29      H        0.46270    0.83350    0.03960    1.000
    C42      C        0.38330    0.79160    0.97170    1.000
    C43      C        0.37290    0.72680    0.92960    1.000
    H30      H        0.32640    0.72680    0.90360    1.000
    C44      C        0.31870    0.85730    0.97790    1.000
    C45      C        0.30910    0.90500    0.03180    1.000
    H31      H        0.34650    0.89830    0.06440    1.000
    C46      C        0.24360    0.96240    0.03640    1.000
    H32      H        0.23890    0.99340    0.07270    1.000
    C47      C        0.19730    0.93300    0.93940    1.000
    H33      H        0.15960    0.94250    0.90720    1.000
    C48      C        0.26110    0.87520    0.93030    1.000
    H34      H        0.26590    0.84780    0.89250    1.000
    N7       N        0.12440    0.11980    0.91147    1.000
    N8       N        0.45440    0.49230    0.81612    1.000
    N9       N        0.48730    0.55320    0.85555    1.000
    N10      N        0.35070    0.55780    0.85865    1.000
    N11      N        0.26840    0.57860    0.87830    1.000
    H35      H        0.22400    0.54670    0.87700    1.000
    H36      H        0.24190    0.60870    0.84990    1.000
    N12      N        0.18700    0.97590    0.99202    1.000
    C49      C        0.64060    0.41340    0.60880    1.000
    H37      H        0.61200    0.46230    0.59810    1.000
    C50      C        0.70220    0.38450    0.56890    1.000
    H38      H        0.71430    0.41400    0.53280    1.000
    C51      C        0.74630    0.31080    0.58280    1.000
    C52      C        0.71910    0.26810    0.63560    1.000
    H39      H        0.74280    0.21650    0.64560    1.000
    C53      C        0.65800    0.30130    0.67280    1.000
    H40      H        0.64190    0.27120    0.70770    1.000
    C54      C        0.81850    0.28000    0.54590    1.000
    C55      C        0.83490    0.30950    0.48650    1.000
    H41      H        0.79960    0.34970    0.46900    1.000
    C56      C        0.90270    0.27990    0.45320    1.000
    H42      H        0.91200    0.29970    0.41330    1.000
    C57      C        0.95720    0.22090    0.47850    1.000
    H43      H        0.00360    0.20220    0.45630    1.000
    C58      C        0.94120    0.19020    0.53779    1.000
    C59      C        0.87310    0.21980    0.57052    1.000
    H44      H        0.86320    0.19930    0.61010    1.000
    C60      C        0.99670    0.12720    0.56857    1.000
    C61      C        0.09170    0.07670    0.63105    1.000
    C62      C        0.16110    0.06870    0.67555    1.000
    C63      C        0.16300    0.99700    0.71300    1.000
    H45      H        0.12100    0.95670    0.70950    1.000
    C64      C        0.22680    0.98620    0.75510    1.000
    H46      H        0.22710    0.93880    0.78040    1.000
    C65      C        0.29110    0.04500    0.76060    1.000
    H47      H        0.33350    0.03730    0.78960    1.000
    C66      C        0.29160    0.11670    0.72170    1.000
    C67      C        0.22680    0.12710    0.67960    1.000
    H48      H        0.22680    0.17360    0.65360    1.000
    C68      C        0.35730    0.18130    0.72790    1.000
    C69      C        0.40500    0.19090    0.78180    1.000
    H49      H        0.39830    0.15350    0.81440    1.000
    C70      C        0.46240    0.25640    0.78640    1.000
    H50      H        0.49340    0.26110    0.82270    1.000
    C71      C        0.43300    0.30270    0.68940    1.000
    H51      H        0.44250    0.34040    0.65720    1.000
    C72      C        0.37520    0.23890    0.68030    1.000
    H52      H        0.34780    0.23410    0.64250    1.000
    N13      N        0.61980    0.37560    0.66147    1.000
    N14      N        0.99230    0.04560    0.56612    1.000
    N15      N        0.05320    0.01270    0.60555    1.000
    N16      N        0.05780    0.14930    0.60865    1.000
    N17      N        0.07860    0.23160    0.62830    1.000
    H53      H        0.04670    0.27600    0.62700    1.000
    H54      H        0.10870    0.25810    0.59990    1.000
    N18      N        0.47590    0.31300    0.74202    1.000
    C73      C        0.35940    0.58660    0.10880    1.000
    H55      H        0.38800    0.53770    0.09810    1.000
    C74      C        0.29780    0.61550    0.06890    1.000
    H56      H        0.28570    0.58600    0.03280    1.000
    C75      C        0.25370    0.68920    0.08280    1.000
    C76      C        0.28090    0.73190    0.13560    1.000
    H57      H        0.25720    0.78350    0.14560    1.000
    C77      C        0.34200    0.69870    0.17280    1.000
    H58      H        0.35810    0.72880    0.20770    1.000
    C78      C        0.18150    0.72000    0.04590    1.000
    C79      C        0.16510    0.69050    0.98650    1.000
    H59      H        0.20040    0.65030    0.96900    1.000
    C80      C        0.09730    0.72010    0.95320    1.000
    H60      H        0.08800    0.70030    0.91330    1.000
    C81      C        0.04280    0.77910    0.97850    1.000
    H61      H        0.99640    0.79780    0.95630    1.000
    C82      C        0.05880    0.80980    0.03779    1.000
    C83      C        0.12690    0.78020    0.07052    1.000
    H62      H        0.13680    0.80070    0.11010    1.000
    C84      C        0.00330    0.87280    0.06857    1.000
    C85      C        0.90830    0.92330    0.13105    1.000
    C86      C        0.83890    0.93130    0.17555    1.000
    C87      C        0.83700    0.00300    0.21300    1.000
    H63      H        0.87900    0.04330    0.20950    1.000
    C88      C        0.77320    0.01380    0.25510    1.000
    H64      H        0.77290    0.06120    0.28040    1.000
    C89      C        0.70890    0.95500    0.26060    1.000
    H65      H        0.66650    0.96270    0.28960    1.000
    C90      C        0.70840    0.88330    0.22170    1.000
    C91      C        0.77320    0.87290    0.17960    1.000
    H66      H        0.77320    0.82640    0.15360    1.000
    C92      C        0.64270    0.81870    0.22790    1.000
    C93      C        0.59500    0.80910    0.28180    1.000
    H67      H        0.60170    0.84650    0.31440    1.000
    C94      C        0.53760    0.74360    0.28640    1.000
    H68      H        0.50660    0.73890    0.32270    1.000
    C95      C        0.56700    0.69730    0.18940    1.000
    H69      H        0.55750    0.65960    0.15720    1.000
    C96      C        0.62480    0.76110    0.18030    1.000
    H70      H        0.65220    0.76590    0.14250    1.000
    N19      N        0.38020    0.62440    0.16147    1.000
    N20      N        0.00770    0.95440    0.06612    1.000
    N21      N        0.94680    0.98730    0.10555    1.000
    N22      N        0.94220    0.85070    0.10865    1.000
    N23      N        0.92140    0.76840    0.12830    1.000
    H71      H        0.95330    0.72400    0.12700    1.000
    H72      H        0.89130    0.74190    0.09990    1.000
    N24      N        0.52410    0.68700    0.24202    1.000
    C97      C        0.58660    0.35940    0.89120    1.000
    H73      H        0.53770    0.38800    0.90190    1.000
    C98      C        0.61550    0.29780    0.93110    1.000
    H74      H        0.58600    0.28570    0.96720    1.000
    C99      C        0.68920    0.25370    0.91720    1.000
    C100     C        0.73190    0.28090    0.86440    1.000
    H75      H        0.78350    0.25720    0.85440    1.000
    C101     C        0.69870    0.34200    0.82720    1.000
    H76      H        0.72880    0.35810    0.79230    1.000
    C102     C        0.72000    0.18150    0.95410    1.000
    C103     C        0.69050    0.16510    0.01350    1.000
    H77      H        0.65030    0.20040    0.03100    1.000
    C104     C        0.72010    0.09730    0.04680    1.000
    H78      H        0.70030    0.08800    0.08670    1.000
    C105     C        0.77910    0.04280    0.02150    1.000
    H79      H        0.79780    0.99640    0.04370    1.000
    C106     C        0.80980    0.05880    0.96221    1.000
    C107     C        0.78020    0.12690    0.92948    1.000
    H80      H        0.80070    0.13680    0.88990    1.000
    C108     C        0.87280    0.00330    0.93143    1.000
    C109     C        0.92330    0.90830    0.86895    1.000
    C110     C        0.93130    0.83890    0.82445    1.000
    C111     C        0.00300    0.83700    0.78700    1.000
    H81      H        0.04330    0.87900    0.79050    1.000
    C112     C        0.01380    0.77320    0.74490    1.000
    H82      H        0.06120    0.77290    0.71960    1.000
    C113     C        0.95500    0.70890    0.73940    1.000
    H83      H        0.96270    0.66650    0.71040    1.000
    C114     C        0.88330    0.70840    0.77830    1.000
    C115     C        0.87290    0.77320    0.82040    1.000
    H84      H        0.82640    0.77320    0.84640    1.000
    C116     C        0.81870    0.64270    0.77210    1.000
    C117     C        0.80910    0.59500    0.71820    1.000
    H85      H        0.84650    0.60170    0.68560    1.000
    C118     C        0.74360    0.53760    0.71360    1.000
    H86      H        0.73890    0.50660    0.67730    1.000
    C119     C        0.69730    0.56700    0.81060    1.000
    H87      H        0.65960    0.55750    0.84280    1.000
    C120     C        0.76110    0.62480    0.81970    1.000
    H88      H        0.76590    0.65220    0.85750    1.000
    N25      N        0.62440    0.38020    0.83853    1.000
    N26      N        0.95440    0.00770    0.93388    1.000
    N27      N        0.98730    0.94680    0.89445    1.000
    N28      N        0.85070    0.94220    0.89135    1.000
    N29      N        0.76840    0.92140    0.87170    1.000
    H89      H        0.72400    0.95330    0.87300    1.000
    H90      H        0.74190    0.89130    0.90010    1.000
    N30      N        0.68700    0.52410    0.75798    1.000
    C121     C        0.41340    0.64060    0.39120    1.000
    H91      H        0.46230    0.61200    0.40190    1.000
    C122     C        0.38450    0.70220    0.43110    1.000
    H92      H        0.41400    0.71430    0.46720    1.000
    C123     C        0.31080    0.74630    0.41720    1.000
    C124     C        0.26810    0.71910    0.36440    1.000
    H93      H        0.21650    0.74280    0.35440    1.000
    C125     C        0.30130    0.65800    0.32720    1.000
    H94      H        0.27120    0.64190    0.29230    1.000
    C126     C        0.28000    0.81850    0.45410    1.000
    C127     C        0.30950    0.83490    0.51350    1.000
    H95      H        0.34970    0.79960    0.53100    1.000
    C128     C        0.27990    0.90270    0.54680    1.000
    H96      H        0.29970    0.91200    0.58670    1.000
    C129     C        0.22090    0.95720    0.52150    1.000
    H97      H        0.20220    0.00360    0.54370    1.000
    C130     C        0.19020    0.94120    0.46221    1.000
    C131     C        0.21980    0.87310    0.42948    1.000
    H98      H        0.19930    0.86320    0.38990    1.000
    C132     C        0.12720    0.99670    0.43143    1.000
    C133     C        0.07670    0.09170    0.36895    1.000
    C134     C        0.06870    0.16110    0.32445    1.000
    C135     C        0.99700    0.16300    0.28700    1.000
    H99      H        0.95670    0.12100    0.29050    1.000
    C136     C        0.98620    0.22680    0.24490    1.000
    H100     H        0.93880    0.22710    0.21960    1.000
    C137     C        0.04500    0.29110    0.23940    1.000
    H101     H        0.03730    0.33350    0.21040    1.000
    C138     C        0.11670    0.29160    0.27830    1.000
    C139     C        0.12710    0.22680    0.32040    1.000
    H102     H        0.17360    0.22680    0.34640    1.000
    C140     C        0.18130    0.35730    0.27210    1.000
    C141     C        0.19090    0.40500    0.21820    1.000
    H103     H        0.15350    0.39830    0.18560    1.000
    C142     C        0.25640    0.46240    0.21360    1.000
    H104     H        0.26110    0.49340    0.17730    1.000
    C143     C        0.30270    0.43300    0.31060    1.000
    H105     H        0.34040    0.44250    0.34280    1.000
    C144     C        0.23890    0.37520    0.31970    1.000
    H106     H        0.23410    0.34780    0.35750    1.000
    N31      N        0.37560    0.61980    0.33853    1.000
    N32      N        0.04560    0.99230    0.43388    1.000
    N33      N        0.01270    0.05320    0.39445    1.000
    N34      N        0.14930    0.05780    0.39135    1.000
    N35      N        0.23160    0.07860    0.37170    1.000
    H107     H        0.27600    0.04670    0.37300    1.000
    H108     H        0.25810    0.10870    0.40010    1.000
    N36      N        0.31300    0.47590    0.25798    1.000
    C145     C        0.85940    0.91340    0.64120    1.000
    H109     H        0.88800    0.96230    0.65190    1.000
    C146     C        0.79780    0.88450    0.68110    1.000
    H110     H        0.78570    0.91400    0.71720    1.000
    C147     C        0.75370    0.81080    0.66720    1.000
    C148     C        0.78090    0.76810    0.61440    1.000
    H111     H        0.75720    0.71650    0.60440    1.000
    C149     C        0.84200    0.80130    0.57720    1.000
    H112     H        0.85810    0.77120    0.54230    1.000
    C150     C        0.68150    0.78000    0.70410    1.000
    C151     C        0.66510    0.80950    0.76350    1.000
    H113     H        0.70040    0.84970    0.78100    1.000
    C152     C        0.59730    0.77990    0.79680    1.000
    H114     H        0.58800    0.79970    0.83670    1.000
    C153     C        0.54280    0.72090    0.77150    1.000
    H115     H        0.49640    0.70220    0.79370    1.000
    C154     C        0.55880    0.69020    0.71221    1.000
    C155     C        0.62690    0.71980    0.67948    1.000
    H116     H        0.63680    0.69930    0.63990    1.000
    C156     C        0.50330    0.62720    0.68143    1.000
    C157     C        0.40830    0.57670    0.61895    1.000
    C158     C        0.33890    0.56870    0.57445    1.000
    C159     C        0.33700    0.49700    0.53700    1.000
    H117     H        0.37900    0.45670    0.54050    1.000
    C160     C        0.27320    0.48620    0.49490    1.000
    H118     H        0.27290    0.43880    0.46960    1.000
    C161     C        0.20890    0.54500    0.48940    1.000
    H119     H        0.16650    0.53730    0.46040    1.000
    C162     C        0.20840    0.61670    0.52830    1.000
    C163     C        0.27320    0.62710    0.57040    1.000
    H120     H        0.27320    0.67360    0.59640    1.000
    C164     C        0.14270    0.68130    0.52210    1.000
    C165     C        0.09500    0.69090    0.46820    1.000
    H121     H        0.10170    0.65350    0.43560    1.000
    C166     C        0.03760    0.75640    0.46360    1.000
    H122     H        0.00660    0.76110    0.42730    1.000
    C167     C        0.06700    0.80270    0.56060    1.000
    H123     H        0.05750    0.84040    0.59280    1.000
    C168     C        0.12480    0.73890    0.56970    1.000
    H124     H        0.15220    0.73410    0.60750    1.000
    N37      N        0.88020    0.87560    0.58853    1.000
    N38      N        0.50770    0.54560    0.68388    1.000
    N39      N        0.44680    0.51270    0.64445    1.000
    N40      N        0.44220    0.64930    0.64135    1.000
    N41      N        0.42140    0.73160    0.62170    1.000
    H125     H        0.45330    0.77600    0.62300    1.000
    H126     H        0.39130    0.75810    0.65010    1.000
    N42      N        0.02410    0.81300    0.50798    1.000
    C169     C        0.14060    0.08660    0.14120    1.000
    H127     H        0.11200    0.03770    0.15190    1.000
    C170     C        0.20220    0.11550    0.18110    1.000
    H128     H        0.21430    0.08600    0.21720    1.000
    C171     C        0.24630    0.18920    0.16720    1.000
    C172     C        0.21910    0.23190    0.11440    1.000
    H129     H        0.24280    0.28350    0.10440    1.000
    C173     C        0.15800    0.19870    0.07720    1.000
    H130     H        0.14190    0.22880    0.04230    1.000
    C174     C        0.31850    0.22000    0.20410    1.000
    C175     C        0.33490    0.19050    0.26350    1.000
    H131     H        0.29960    0.15030    0.28100    1.000
    C176     C        0.40270    0.22010    0.29680    1.000
    H132     H        0.41200    0.20030    0.33670    1.000
    C177     C        0.45720    0.27910    0.27150    1.000
    H133     H        0.50360    0.29780    0.29370    1.000
    C178     C        0.44120    0.30980    0.21221    1.000
    C179     C        0.37310    0.28020    0.17948    1.000
    H134     H        0.36320    0.30070    0.13990    1.000
    C180     C        0.49670    0.37280    0.18143    1.000
    C181     C        0.59170    0.42330    0.11895    1.000
    C182     C        0.66110    0.43130    0.07445    1.000
    C183     C        0.66300    0.50300    0.03700    1.000
    H135     H        0.62100    0.54330    0.04050    1.000
    C184     C        0.72680    0.51380    0.99490    1.000
    H136     H        0.72710    0.56120    0.96960    1.000
    C185     C        0.79110    0.45500    0.98940    1.000
    H137     H        0.83350    0.46270    0.96040    1.000
    C186     C        0.79160    0.38330    0.02830    1.000
    C187     C        0.72680    0.37290    0.07040    1.000
    H138     H        0.72680    0.32640    0.09640    1.000
    C188     C        0.85730    0.31870    0.02210    1.000
    C189     C        0.90500    0.30910    0.96820    1.000
    H139     H        0.89830    0.34650    0.93560    1.000
    C190     C        0.96240    0.24360    0.96360    1.000
    H140     H        0.99340    0.23890    0.92730    1.000
    C191     C        0.93300    0.19730    0.06060    1.000
    H141     H        0.94250    0.15960    0.09280    1.000
    C192     C        0.87520    0.26110    0.06970    1.000
    H142     H        0.84780    0.26590    0.10750    1.000
    N43      N        0.11980    0.12440    0.08853    1.000
    N44      N        0.49230    0.45440    0.18388    1.000
    N45      N        0.55320    0.48730    0.14445    1.000
    N46      N        0.55780    0.35070    0.14135    1.000
    N47      N        0.57860    0.26840    0.12170    1.000
    H143     H        0.54670    0.22400    0.12300    1.000
    H144     H        0.60870    0.24190    0.15010    1.000
    N48      N        0.97590    0.18700    0.00798    1.000
    Cd1      Cd       0.44115    0.55885    0.25000    1.000
    Cd2      Cd       0.55885    0.44115    0.75000    1.000
    Cd3      Cd       0.94115    0.94115    0.50000    1.000
    Cd4      Cd       0.05885    0.05885    0.00000    1.000
