data_functionalizedCrystal
_audit_creation_method	'EQeq! by Chris Wilmer'
_symmetry_space_group_name_H-M	'P1'
_symmetry_Int_Tables_number	1
_symmetry_cell_setting	triclinic
loop_
_symmetry_equiv_pos_as_xyz
  x,y,z
_cell_length_a	17.3884
_cell_length_b	17.3884
_cell_length_c	17.3884
_cell_angle_alpha	65.3544
_cell_angle_beta	65.3544
_cell_angle_gamma	65.3544
loop_
_atom_site_label
_atom_site_type_symbol
_atom_site_fract_x
_atom_site_fract_y
_atom_site_fract_z
_atom_site_charge
Mof_Cu	Cu	0.57302	0.00388	0.00388	0.899
Mof_Cu	Cu	0.00388	0.57302	0.00388	0.899
Mof_Cu	Cu	0.00388	0.00388	0.57302	0.899
Mof_Cu	Cu	0.99612	0.42698	0.99612	0.899
Mof_Cu	Cu	0.42698	0.99612	0.99612	0.899
Mof_Cu	Cu	0.99612	0.99612	0.42698	0.899
Mof_H 	H 	0.5064	0.721	0.0202	0.065
Mof_H 	H 	0.0202	0.5064	0.721	0.065
Mof_H 	H 	0.721	0.0202	0.5064	0.065
Mof_H 	H 	0.279	0.4936	0.9798	0.065
Mof_H 	H 	0.4936	0.9798	0.279	0.065
Mof_H 	H 	0.9798	0.279	0.4936	0.065
Mof_H 	H 	0.4936	0.279	0.9798	0.066
Mof_H 	H 	0.9798	0.4936	0.279	0.066
Mof_H 	H 	0.279	0.9798	0.4936	0.066
Mof_H 	H 	0.721	0.5064	0.0202	0.066
Mof_H 	H 	0.5064	0.0202	0.721	0.066
Mof_H 	H 	0.0202	0.721	0.5064	0.066
Mof_H 	H 	0.7305	0.7305	0.0278	0.059
Mof_H 	H 	0.0278	0.7305	0.7305	0.059
Mof_H 	H 	0.7305	0.0278	0.7305	0.059
Mof_H 	H 	0.2695	0.2695	0.9722	0.059
Mof_H 	H 	0.2695	0.9722	0.2695	0.059
Mof_H 	H 	0.9722	0.2695	0.2695	0.059
Mof_C 	C 	0.61175	0.74055	0.02475	-0.067
Mof_C 	C 	0.56483	0.69393	0.02133	-0.039
Mof_C 	C 	0.56902	0.83642	0.02102	0.356
Mof_C 	C 	0.02475	0.61175	0.74055	-0.067
Mof_C 	C 	0.02133	0.56483	0.69393	-0.039
Mof_C 	C 	0.02102	0.56902	0.83642	0.356
Mof_C 	C 	0.74055	0.02475	0.61175	-0.067
Mof_C 	C 	0.69393	0.02133	0.56483	-0.039
Mof_C 	C 	0.83642	0.02102	0.56902	0.356
Mof_C 	C 	0.25945	0.38825	0.97525	-0.067
Mof_C 	C 	0.30607	0.43517	0.97867	-0.039
Mof_C 	C 	0.16358	0.43098	0.97898	0.356
Mof_C 	C 	0.38825	0.97525	0.25945	-0.067
Mof_C 	C 	0.43517	0.97867	0.30607	-0.039
Mof_C 	C 	0.43098	0.97898	0.16358	0.356
Mof_C 	C 	0.97525	0.25945	0.38825	-0.067
Mof_C 	C 	0.97867	0.30607	0.43517	-0.039
Mof_C 	C 	0.97898	0.16358	0.43098	0.356
Mof_C 	C 	0.38825	0.25945	0.97525	-0.067
Mof_C 	C 	0.43517	0.30607	0.97867	-0.039
Mof_C 	C 	0.43098	0.16358	0.97898	0.356
Mof_C 	C 	0.97525	0.38825	0.25945	-0.067
Mof_C 	C 	0.97867	0.43517	0.30607	-0.039
Mof_C 	C 	0.97898	0.43098	0.16358	0.356
Mof_C 	C 	0.25945	0.97525	0.38825	-0.067
Mof_C 	C 	0.30607	0.97867	0.43517	-0.039
Mof_C 	C 	0.16358	0.97898	0.43098	0.356
Mof_C 	C 	0.74055	0.61175	0.02475	-0.067
Mof_C 	C 	0.69393	0.56483	0.02133	-0.039
Mof_C 	C 	0.83642	0.56902	0.02102	0.356
Mof_C 	C 	0.61175	0.02475	0.74055	-0.067
Mof_C 	C 	0.56483	0.02133	0.69393	-0.039
Mof_C 	C 	0.56902	0.02102	0.83642	0.356
Mof_C 	C 	0.02475	0.74055	0.61175	-0.067
Mof_C 	C 	0.02133	0.69393	0.56483	-0.039
Mof_C 	C 	0.02102	0.83642	0.56902	0.356
Mof_C 	C 	0.5602	0.5602	0.0141	-0.022
Mof_C 	C 	0.5226	0.5226	0.0047	0.001
Mof_C 	C 	0.69922	0.69922	0.02607	0.013
Mof_C 	C 	0.6064	0.6064	0.01965	0.031
Mof_C 	C 	0.0141	0.5602	0.5602	-0.022
Mof_C 	C 	0.0047	0.5226	0.5226	0.001
Mof_C 	C 	0.02607	0.69922	0.69922	0.013
Mof_C 	C 	0.01965	0.6064	0.6064	0.031
Mof_C 	C 	0.5602	0.0141	0.5602	-0.022
Mof_C 	C 	0.5226	0.0047	0.5226	0.001
Mof_C 	C 	0.69922	0.02607	0.69922	0.013
Mof_C 	C 	0.6064	0.01965	0.6064	0.031
Mof_C 	C 	0.4398	0.4398	0.9859	-0.022
Mof_C 	C 	0.4774	0.4774	0.9953	0.001
Mof_C 	C 	0.30078	0.30078	0.97393	0.013
Mof_C 	C 	0.3936	0.3936	0.98035	0.031
Mof_C 	C 	0.4398	0.9859	0.4398	-0.022
Mof_C 	C 	0.4774	0.9953	0.4774	0.001
Mof_C 	C 	0.30078	0.97393	0.30078	0.013
Mof_C 	C 	0.3936	0.98035	0.3936	0.031
Mof_C 	C 	0.9859	0.4398	0.4398	-0.022
Mof_C 	C 	0.9953	0.4774	0.4774	0.001
Mof_C 	C 	0.97393	0.30078	0.30078	0.013
Mof_C 	C 	0.98035	0.3936	0.3936	0.031
Mof_O 	O 	0.61482	0.87616	0.02134	-0.401
Mof_O 	O 	0.49165	0.86961	0.01558	-0.405
Mof_O 	O 	0.02134	0.61482	0.87616	-0.401
Mof_O 	O 	0.01558	0.49165	0.86961	-0.405
Mof_O 	O 	0.87616	0.02134	0.61482	-0.401
Mof_O 	O 	0.86961	0.01558	0.49165	-0.405
Mof_O 	O 	0.12384	0.38518	0.97866	-0.401
Mof_O 	O 	0.13039	0.50835	0.98442	-0.405
Mof_O 	O 	0.38518	0.97866	0.12384	-0.401
Mof_O 	O 	0.50835	0.98442	0.13039	-0.405
Mof_O 	O 	0.97866	0.12384	0.38518	-0.401
Mof_O 	O 	0.98442	0.13039	0.50835	-0.405
Mof_O 	O 	0.38518	0.12384	0.97866	-0.401
Mof_O 	O 	0.50835	0.13039	0.98442	-0.405
Mof_O 	O 	0.97866	0.38518	0.12384	-0.401
Mof_O 	O 	0.98442	0.50835	0.13039	-0.405
Mof_O 	O 	0.12384	0.97866	0.38518	-0.401
Mof_O 	O 	0.13039	0.98442	0.50835	-0.405
Mof_O 	O 	0.87616	0.61482	0.02134	-0.401
Mof_O 	O 	0.86961	0.49165	0.01558	-0.405
Mof_O 	O 	0.61482	0.02134	0.87616	-0.401
Mof_O 	O 	0.49165	0.01558	0.86961	-0.405
Mof_O 	O 	0.02134	0.87616	0.61482	-0.401
Mof_O 	O 	0.01558	0.86961	0.49165	-0.405
_end
