data_functionalizedCrystal
_audit_creation_method	'EQeq! by Chris Wilmer'
_symmetry_space_group_name_H-M	'P1'
_symmetry_Int_Tables_number	1
_symmetry_cell_setting	triclinic
loop_
_symmetry_equiv_pos_as_xyz
  x,y,z
_cell_length_a	10.6908
_cell_length_b	10.6908
_cell_length_c	31.4941
_cell_angle_alpha	80.228
_cell_angle_beta	80.228
_cell_angle_gamma	60
loop_
_atom_site_label
_atom_site_type_symbol
_atom_site_fract_x
_atom_site_fract_y
_atom_site_fract_z
_atom_site_charge
Mof_Cd	Cd	0.5	0.5	0.5	0.415
Mof_Cd	Cd	-0	0	-0	0.394
Mof_H 	H 	0.575	0.2021	0.5743	0.014
Mof_H 	H 	0.1679	0.3083	0.5935	0.007
Mof_H 	H 	0.5818	0.9332	0.5965	0.073
Mof_H 	H 	0.6366	0.7526	0.6508	0.056
Mof_H 	H 	0.3313	0.0267	0.7321	0.064
Mof_H 	H 	0.2779	0.2186	0.6766	0.08
Mof_H 	H 	0.6496	0.6817	0.7267	0.057
Mof_H 	H 	0.5067	0.6752	0.7273	0.071
Mof_H 	H 	0.2021	0.6486	0.5743	0.014
Mof_H 	H 	0.3083	0.9303	0.5935	0.01
Mof_H 	H 	0.9332	0.8885	0.5965	0.074
Mof_H 	H 	0.7526	0.96	0.6508	0.056
Mof_H 	H 	0.0267	0.9099	0.7321	0.064
Mof_H 	H 	0.2186	0.8269	0.6766	0.082
Mof_H 	H 	0.6817	0.942	0.7267	0.054
Mof_H 	H 	0.6752	0.0908	0.7273	0.064
Mof_H 	H 	0.6486	0.575	0.5743	0.015
Mof_H 	H 	0.9303	0.1679	0.5935	0.008
Mof_H 	H 	0.8885	0.5818	0.5965	0.078
Mof_H 	H 	0.96	0.6366	0.6508	0.054
Mof_H 	H 	0.9099	0.3313	0.7321	0.064
Mof_H 	H 	0.8269	0.2779	0.6766	0.084
Mof_H 	H 	0.942	0.6496	0.7267	0.065
Mof_H 	H 	0.0908	0.5067	0.7273	0.074
Mof_H 	H 	0.925	0.8514	0.9257	0.028
Mof_H 	H 	0.3321	0.5697	0.9065	0.009
Mof_H 	H 	0.9182	0.6115	0.9035	0.077
Mof_H 	H 	0.8634	0.54	0.8492	0.051
Mof_H 	H 	0.1687	0.5901	0.7679	0.062
Mof_H 	H 	0.2221	0.6731	0.8234	0.084
Mof_H 	H 	0.8504	0.558	0.7733	0.066
Mof_H 	H 	0.9933	0.4092	0.7727	0.082
Mof_H 	H 	0.2979	0.925	0.9257	0.026
Mof_H 	H 	0.1917	0.3321	0.9065	0.008
Mof_H 	H 	0.5668	0.9182	0.9035	0.073
Mof_H 	H 	0.7474	0.8634	0.8492	0.057
Mof_H 	H 	0.4733	0.1687	0.7679	0.067
Mof_H 	H 	0.2814	0.2221	0.8234	0.08
Mof_H 	H 	0.8183	0.8504	0.7733	0.079
Mof_H 	H 	0.8248	0.9933	0.7727	0.096
Mof_H 	H 	0.8514	0.2979	0.9257	0.017
Mof_H 	H 	0.5697	0.1917	0.9065	0.008
Mof_H 	H 	0.6115	0.5668	0.9035	0.073
Mof_H 	H 	0.54	0.7474	0.8492	0.059
Mof_H 	H 	0.5901	0.4733	0.7679	0.069
Mof_H 	H 	0.6731	0.2814	0.8234	0.08
Mof_H 	H 	0.558	0.8183	0.7733	0.079
Mof_H 	H 	0.4092	0.8248	0.7727	0.093
Mof_H 	H 	0.425	0.7979	0.4257	0.015
Mof_H 	H 	0.8321	0.6917	0.4065	0.01
Mof_H 	H 	0.4182	0.0668	0.4035	0.079
Mof_H 	H 	0.3634	0.2474	0.3492	0.052
Mof_H 	H 	0.6687	0.9733	0.2679	0.063
Mof_H 	H 	0.7221	0.7814	0.3234	0.088
Mof_H 	H 	0.3504	0.3183	0.2733	0.077
Mof_H 	H 	0.4933	0.3248	0.2727	0.092
Mof_H 	H 	0.7979	0.3514	0.4257	0.015
Mof_H 	H 	0.6917	0.0697	0.4065	0.007
Mof_H 	H 	0.0668	0.1115	0.4035	0.078
Mof_H 	H 	0.2474	0.04	0.3492	0.052
Mof_H 	H 	0.9733	0.0901	0.2679	0.063
Mof_H 	H 	0.7814	0.1731	0.3234	0.085
Mof_H 	H 	0.3183	0.058	0.2733	0.079
Mof_H 	H 	0.3248	0.9092	0.2727	0.1
Mof_H 	H 	0.3514	0.425	0.4257	0.014
Mof_H 	H 	0.0697	0.8321	0.4065	0.009
Mof_H 	H 	0.1115	0.4182	0.4035	0.074
Mof_H 	H 	0.04	0.3634	0.3492	0.054
Mof_H 	H 	0.0901	0.6687	0.2679	0.064
Mof_H 	H 	0.1731	0.7221	0.3234	0.083
Mof_H 	H 	0.058	0.3504	0.2733	0.069
Mof_H 	H 	0.9092	0.4933	0.2727	0.089
Mof_H 	H 	0.075	0.1486	0.0743	0.001
Mof_H 	H 	0.6679	0.4303	0.0935	0.008
Mof_H 	H 	0.0818	0.3885	0.0965	0.075
Mof_H 	H 	0.1366	0.46	0.1508	0.057
Mof_H 	H 	0.8313	0.4099	0.2321	0.066
Mof_H 	H 	0.7779	0.3269	0.1766	0.083
Mof_H 	H 	0.1496	0.442	0.2267	0.067
Mof_H 	H 	0.0067	0.5908	0.2273	0.079
Mof_H 	H 	0.7021	0.075	0.0743	0.003
Mof_H 	H 	0.8083	0.6679	0.0935	0.009
Mof_H 	H 	0.4332	0.0818	0.0965	0.079
Mof_H 	H 	0.2526	0.1366	0.1508	0.051
Mof_H 	H 	0.5267	0.8313	0.2321	0.06
Mof_H 	H 	0.7186	0.7779	0.1766	0.088
Mof_H 	H 	0.1817	0.1496	0.2267	0.053
Mof_H 	H 	0.1752	0.0067	0.2273	0.065
Mof_H 	H 	0.1486	0.7021	0.0743	0.012
Mof_H 	H 	0.4303	0.8083	0.0935	0.009
Mof_H 	H 	0.3885	0.4332	0.0965	0.079
Mof_H 	H 	0.46	0.2526	0.1508	0.048
Mof_H 	H 	0.4099	0.5267	0.2321	0.058
Mof_H 	H 	0.3269	0.7186	0.1766	0.087
Mof_H 	H 	0.442	0.1817	0.2267	0.052
Mof_H 	H 	0.5908	0.1752	0.2273	0.067
Mof_C 	C 	0.47598	0.24788	0.57166	0.119
Mof_C 	C 	0.25532	0.30542	0.58204	0.112
Mof_C 	C 	0.4243	0.0881	0.6301	0.101
Mof_C 	C 	0.5303	0.9528	0.6238	-0.092
Mof_C 	C 	0.56261	0.84521	0.65647	-0.05
Mof_C 	C 	0.49314	0.86504	0.69688	0.039
Mof_C 	C 	0.38155	0.00885	0.70495	-0.066
Mof_C 	C 	0.34754	0.12374	0.67168	-0.08
Mof_C 	C 	0.54463	0.73723	0.73171	-0.087
Mof_C 	C 	0.24788	0.70448	0.57166	0.12
Mof_C 	C 	0.30542	0.85722	0.58204	0.112
Mof_C 	C 	0.0881	0.8575	0.6301	0.104
Mof_C 	C 	0.9528	0.8931	0.6238	-0.094
Mof_C 	C 	0.84521	0.93571	0.65647	-0.046
Mof_C 	C 	0.86504	0.94494	0.69688	0.035
Mof_C 	C 	0.00885	0.90465	0.70495	-0.063
Mof_C 	C 	0.12374	0.85704	0.67168	-0.081
Mof_C 	C 	0.73723	0.98643	0.73171	-0.074
Mof_C 	C 	0.70448	0.47598	0.57166	0.121
Mof_C 	C 	0.85722	0.25532	0.58204	0.113
Mof_C 	C 	0.8575	0.4243	0.6301	0.116
Mof_C 	C 	0.8931	0.5303	0.6238	-0.109
Mof_C 	C 	0.93571	0.56261	0.65647	-0.041
Mof_C 	C 	0.94494	0.49314	0.69688	0.036
Mof_C 	C 	0.90465	0.38155	0.70495	-0.054
Mof_C 	C 	0.85704	0.34754	0.67168	-0.088
Mof_C 	C 	0.98643	0.54463	0.73171	-0.109
Mof_C 	C 	0.02402	0.79552	0.92834	0.105
Mof_C 	C 	0.24468	0.64278	0.91796	0.113
Mof_C 	C 	0.0757	0.6425	0.8699	0.106
Mof_C 	C 	0.9697	0.6069	0.8762	-0.101
Mof_C 	C 	0.93739	0.56429	0.84353	-0.032
Mof_C 	C 	0.00686	0.55506	0.80312	0.023
Mof_C 	C 	0.11845	0.59535	0.79505	-0.053
Mof_C 	C 	0.15246	0.64296	0.82832	-0.087
Mof_C 	C 	0.95537	0.51357	0.76829	-0.116
Mof_C 	C 	0.25212	0.02402	0.92834	0.104
Mof_C 	C 	0.19458	0.24468	0.91796	0.112
Mof_C 	C 	0.4119	0.0757	0.8699	0.099
Mof_C 	C 	0.5472	0.9697	0.8762	-0.09
Mof_C 	C 	0.65479	0.93739	0.84353	-0.049
Mof_C 	C 	0.63496	0.00686	0.80312	0.043
Mof_C 	C 	0.49115	0.11845	0.79505	-0.066
Mof_C 	C 	0.37626	0.15246	0.82832	-0.079
Mof_C 	C 	0.76277	0.95537	0.76829	-0.157
Mof_C 	C 	0.79552	0.25212	0.92834	0.121
Mof_C 	C 	0.64278	0.19458	0.91796	0.112
Mof_C 	C 	0.6425	0.4119	0.8699	0.108
Mof_C 	C 	0.6069	0.5472	0.8762	-0.096
Mof_C 	C 	0.56429	0.65479	0.84353	-0.059
Mof_C 	C 	0.55506	0.63496	0.80312	0.057
Mof_C 	C 	0.59535	0.49115	0.79505	-0.068
Mof_C 	C 	0.64296	0.37626	0.82832	-0.078
Mof_C 	C 	0.51357	0.76277	0.76829	-0.16
Mof_C 	C 	0.52402	0.75212	0.42834	0.122
Mof_C 	C 	0.74468	0.69458	0.41796	0.114
Mof_C 	C 	0.5757	0.9119	0.3699	0.128
Mof_C 	C 	0.4697	0.0472	0.3762	-0.123
Mof_C 	C 	0.43739	0.15479	0.34353	-0.039
Mof_C 	C 	0.50686	0.13496	0.30312	0.037
Mof_C 	C 	0.61845	0.99115	0.29505	-0.045
Mof_C 	C 	0.65246	0.87626	0.32832	-0.095
Mof_C 	C 	0.45537	0.26277	0.26829	-0.158
Mof_C 	C 	0.75212	0.29552	0.42834	0.121
Mof_C 	C 	0.69458	0.14278	0.41796	0.113
Mof_C 	C 	0.9119	0.1425	0.3699	0.125
Mof_C 	C 	0.0472	0.1069	0.3762	-0.12
Mof_C 	C 	0.15479	0.06429	0.34353	-0.044
Mof_C 	C 	0.13496	0.05506	0.30312	0.041
Mof_C 	C 	0.99115	0.09535	0.29505	-0.049
Mof_C 	C 	0.87626	0.14296	0.32832	-0.093
Mof_C 	C 	0.26277	0.01357	0.26829	-0.171
Mof_C 	C 	0.29552	0.52402	0.42834	0.12
Mof_C 	C 	0.14278	0.74468	0.41796	0.112
Mof_C 	C 	0.1425	0.5757	0.3699	0.112
Mof_C 	C 	0.1069	0.4697	0.3762	-0.105
Mof_C 	C 	0.06429	0.43739	0.34353	-0.049
Mof_C 	C 	0.05506	0.50686	0.30312	0.041
Mof_C 	C 	0.09535	0.61845	0.29505	-0.06
Mof_C 	C 	0.14296	0.65246	0.32832	-0.085
Mof_C 	C 	0.01357	0.45537	0.26829	-0.134
Mof_C 	C 	0.97598	0.20448	0.07166	0.137
Mof_C 	C 	0.75532	0.35722	0.08204	0.113
Mof_C 	C 	0.9243	0.3575	0.1301	0.122
Mof_C 	C 	0.0303	0.3931	0.1238	-0.113
Mof_C 	C 	0.06261	0.43571	0.15647	-0.059
Mof_C 	C 	0.99314	0.44494	0.19688	0.056
Mof_C 	C 	0.88155	0.40465	0.20495	-0.061
Mof_C 	C 	0.84754	0.35704	0.17168	-0.086
Mof_C 	C 	0.04463	0.48643	0.23171	-0.126
Mof_C 	C 	0.74788	0.97598	0.07166	0.138
Mof_C 	C 	0.80542	0.75532	0.08204	0.114
Mof_C 	C 	0.5881	0.9243	0.1301	0.131
Mof_C 	C 	0.4528	0.0303	0.1238	-0.126
Mof_C 	C 	0.34521	0.06261	0.15647	-0.041
Mof_C 	C 	0.36504	0.99314	0.19688	0.034
Mof_C 	C 	0.50885	0.88155	0.20495	-0.047
Mof_C 	C 	0.62374	0.84754	0.17168	-0.096
Mof_C 	C 	0.23723	0.04463	0.23171	-0.082
Mof_C 	C 	0.20448	0.74788	0.07166	0.12
Mof_C 	C 	0.35722	0.80542	0.08204	0.113
Mof_C 	C 	0.3575	0.5881	0.1301	0.121
Mof_C 	C 	0.3931	0.4528	0.1238	-0.119
Mof_C 	C 	0.43571	0.34521	0.15647	-0.028
Mof_C 	C 	0.44494	0.36504	0.19688	0.018
Mof_C 	C 	0.40465	0.50885	0.20495	-0.043
Mof_C 	C 	0.35704	0.62374	0.17168	-0.097
Mof_C 	C 	0.48643	0.23723	0.23171	-0.077
Mof_N 	N 	0.40962	0.35842	0.54424	-0.112
Mof_N 	N 	0.26627	0.39627	0.55069	-0.093
Mof_N 	N 	0.3831	0.2076	0.5959	-0.151
Mof_N 	N 	0.35842	0.68772	0.54424	-0.112
Mof_N 	N 	0.39627	0.78677	0.55069	-0.092
Mof_N 	N 	0.2076	0.8134	0.5959	-0.151
Mof_N 	N 	0.68772	0.40962	0.54424	-0.112
Mof_N 	N 	0.78677	0.26627	0.55069	-0.093
Mof_N 	N 	0.8134	0.3831	0.5959	-0.153
Mof_N 	N 	0.09038	0.81228	0.95576	-0.106
Mof_N 	N 	0.23373	0.71323	0.94931	-0.091
Mof_N 	N 	0.1169	0.6866	0.9041	-0.15
Mof_N 	N 	0.14158	0.09038	0.95576	-0.108
Mof_N 	N 	0.10373	0.23373	0.94931	-0.093
Mof_N 	N 	0.2924	0.1169	0.9041	-0.149
Mof_N 	N 	0.81228	0.14158	0.95576	-0.108
Mof_N 	N 	0.71323	0.10373	0.94931	-0.093
Mof_N 	N 	0.6866	0.2924	0.9041	-0.151
Mof_N 	N 	0.59038	0.64158	0.45576	-0.112
Mof_N 	N 	0.73373	0.60373	0.44931	-0.092
Mof_N 	N 	0.6169	0.7924	0.4041	-0.154
Mof_N 	N 	0.64158	0.31228	0.45576	-0.112
Mof_N 	N 	0.60373	0.21323	0.44931	-0.093
Mof_N 	N 	0.7924	0.1866	0.4041	-0.154
Mof_N 	N 	0.31228	0.59038	0.45576	-0.112
Mof_N 	N 	0.21323	0.73373	0.44931	-0.092
Mof_N 	N 	0.1866	0.6169	0.4041	-0.153
Mof_N 	N 	0.90962	0.18772	0.04424	-0.114
Mof_N 	N 	0.76627	0.28677	0.05069	-0.093
Mof_N 	N 	0.8831	0.3134	0.0959	-0.156
Mof_N 	N 	0.85842	0.90962	0.04424	-0.111
Mof_N 	N 	0.89627	0.76627	0.05069	-0.091
Mof_N 	N 	0.7076	0.8831	0.0959	-0.157
Mof_N 	N 	0.18772	0.85842	0.04424	-0.111
Mof_N 	N 	0.28677	0.89627	0.05069	-0.091
Mof_N 	N 	0.3134	0.7076	0.0959	-0.154
Mof_Cl	Cl	0.94398	0.94398	0.16806	-0.2
Mof_O 	O 	0.8148	0.0625	0.1521	-0.048
Mof_O 	O 	0.0625	0.9706	0.1521	-0.045
Mof_O 	O 	0.9706	0.8148	0.1521	-0.039
Mof_O 	O 	0.92881	0.92881	0.21357	-0.046
Mof_Cl	Cl	0.55602	0.55602	0.33194	-0.215
Mof_O 	O 	0.6852	0.5294	0.3479	-0.04
Mof_O 	O 	0.4375	0.6852	0.3479	-0.04
Mof_O 	O 	0.5294	0.4375	0.3479	-0.041
Mof_O 	O 	0.57119	0.57119	0.28643	-0.051
Mof_Cl	Cl	0.05602	0.05602	0.83194	-0.227
Mof_O 	O 	0.1852	0.9375	0.8479	-0.034
Mof_O 	O 	0.9375	0.0294	0.8479	-0.037
Mof_O 	O 	0.0294	0.1852	0.8479	-0.043
Mof_O 	O 	0.07119	0.07119	0.78643	-0.054
Mof_Cl	Cl	0.44398	0.44398	0.66806	-0.215
Mof_O 	O 	0.3148	0.4706	0.6521	-0.042
Mof_O 	O 	0.5625	0.3148	0.6521	-0.041
Mof_O 	O 	0.4706	0.5625	0.6521	-0.041
Mof_O 	O 	0.42881	0.42881	0.71357	-0.05
_end
