data_functionalizedCrystal
_audit_creation_method	'EQeq! by Chris Wilmer'
_symmetry_space_group_name_H-M	'P1'
_symmetry_Int_Tables_number	1
_symmetry_cell_setting	triclinic
loop_
_symmetry_equiv_pos_as_xyz
  x,y,z
_cell_length_a	17.34
_cell_length_b	12.178
_cell_length_c	6.822
_cell_angle_alpha	90
_cell_angle_beta	90
_cell_angle_gamma	90
loop_
_atom_site_label
_atom_site_type_symbol
_atom_site_fract_x
_atom_site_fract_y
_atom_site_fract_z
_atom_site_charge
Mof_O 	O 	0.089	0.089	0.913	-0.346
Mof_O 	O 	0.427	0.388	0.91	-0.493
Mof_C 	C 	0.229	0.198	0.922	0.053
Mof_C 	C 	0.295	0.264	0.92	0.131
Mof_O 	O 	0.411	0.589	0.087	-0.619
Mof_O 	O 	0.073	0.888	0.09	-0.381
Mof_C 	C 	0.271	0.698	0.078	0.009
Mof_C 	C 	0.205	0.764	0.08	0.019
Mof_O 	O 	0.911	0.911	0.413	-0.284
Mof_O 	O 	0.573	0.612	0.41	-0.631
Mof_C 	C 	0.771	0.802	0.422	0.089
Mof_C 	C 	0.705	0.736	0.42	0.119
Mof_O 	O 	0.589	0.411	0.587	-0.643
Mof_O 	O 	0.927	0.112	0.59	-0.403
Mof_C 	C 	0.729	0.302	0.578	0.05
Mof_C 	C 	0.795	0.236	0.58	0.015
Mof_O 	O 	0.911	0.911	0.087	-0.281
Mof_O 	O 	0.573	0.612	0.09	-0.625
Mof_C 	C 	0.771	0.802	0.078	0.015
Mof_C 	C 	0.705	0.736	0.08	0.046
Mof_O 	O 	0.589	0.411	0.913	-0.483
Mof_O 	O 	0.927	0.112	0.91	-0.245
Mof_C 	C 	0.729	0.302	0.922	0.124
Mof_C 	C 	0.795	0.236	0.92	0.086
Mof_O 	O 	0.089	0.089	0.587	-0.505
Mof_O 	O 	0.427	0.388	0.59	-0.656
Mof_C 	C 	0.229	0.198	0.578	-0.021
Mof_C 	C 	0.295	0.264	0.58	0.058
Mof_O 	O 	0.411	0.589	0.413	-0.622
Mof_O 	O 	0.073	0.888	0.41	-0.386
Mof_C 	C 	0.271	0.698	0.422	0.084
Mof_C 	C 	0.205	0.764	0.42	0.092
Mof_Cr	Cr	-0	0	-0	0.751
Mof_Cr	Cr	0.5	0.5	-0	1.889
Mof_Cr	Cr	-1.45285e-33	2.1904e-33	0.5	1.276
Mof_Cr	Cr	0.5	0.5	0.5	2.426
Mof_O 	O 	0.002	0.922	0.75	-0.289
Mof_C 	C 	0.392	0.357	0.75	0.561
Mof_C 	C 	0.123	0.117	0.75	0.39
Mof_C 	C 	0.329	0.287	0.75	-0.237
Mof_C 	C 	0.191	0.18	0.75	-0.126
Mof_O 	O 	0.498	0.422	0.25	-0.792
Mof_C 	C 	0.108	0.857	0.25	0.416
Mof_C 	C 	0.377	0.617	0.25	0.546
Mof_C 	C 	0.171	0.787	0.25	-0.166
Mof_C 	C 	0.309	0.68	0.25	-0.193
Mof_O 	O 	0.998	0.078	0.25	-0.397
Mof_C 	C 	0.608	0.643	0.25	0.569
Mof_C 	C 	0.877	0.883	0.25	0.392
Mof_C 	C 	0.671	0.713	0.25	-0.232
Mof_C 	C 	0.809	0.82	0.25	-0.115
Mof_O 	O 	0.502	0.578	0.75	-0.641
Mof_C 	C 	0.892	0.143	0.75	0.39
Mof_C 	C 	0.623	0.383	0.75	0.547
Mof_C 	C 	0.829	0.213	0.75	-0.126
Mof_C 	C 	0.691	0.32	0.75	-0.205
_end
