# CIF file generated by openbabel 3.1.0, see https://openbabel.org
data_I
_chemical_name_common 'image0'
_cell_length_a 9.3663
_cell_length_b 34.9276
_cell_length_c 17.1862
_cell_angle_alpha 90
_cell_angle_beta 99.356
_cell_angle_gamma 90
_space_group_name_H-M_alt 'P 1'
_space_group_name_Hall 'P 1'
loop_
    _symmetry_equiv_pos_as_xyz
    x,y,z
loop_
    _atom_site_label
    _atom_site_type_symbol
    _atom_site_fract_x
    _atom_site_fract_y
    _atom_site_fract_z
    _atom_site_occupancy
    C1       C        0.32940    0.01798    0.54690    1.000
    C2       C        0.23770    0.99475    0.49390    1.000
    C3       C        0.12930    0.01124    0.43870    1.000
    C4       C        0.11320    0.05068    0.43630    1.000
    C5       C        0.19980    0.07323    0.49120    1.000
    C6       C        0.30510    0.05702    0.54800    1.000
    C7       C        0.39280    0.08270    0.61150    1.000
    H1       H        0.44980    0.06690    0.65050    1.000
    H2       H        0.32770    0.09800    0.63610    1.000
    H3       H        0.45540    0.09910    0.58740    1.000
    C8       C        0.45320    0.00001    0.60140    1.000
    H4       H        0.49580    0.97950    0.57480    1.000
    H5       H        0.52740    0.01890    0.61880    1.000
    C9       C        0.26090    0.95099    0.49700    1.000
    H6       H        0.33230    0.94460    0.54180    1.000
    H7       H        0.29360    0.94270    0.44960    1.000
    H8       H        0.17130    0.93850    0.50150    1.000
    C10      C        0.02890    0.98551    0.38440    1.000
    H9       H        0.98870    0.96570    0.41400    1.000
    H10      H        0.95010    0.00010    0.35480    1.000
    C11      C        0.99620    0.06939    0.37480    1.000
    H11      H        0.98210    0.09550    0.38960    1.000
    H12      H        0.90700    0.05550    0.37240    1.000
    H13      H        0.02640    0.06890    0.32400    1.000
    C12      C        0.17950    0.11695    0.48870    1.000
    H14      H        0.26520    0.13050    0.51400    1.000
    H15      H        0.15020    0.12650    0.43550    1.000
    C13      C        0.47790    0.95989    0.71560    1.000
    C14      C        0.41290    0.94020    0.77020    1.000
    H16      H        0.31610    0.94460    0.77340    1.000
    C15      C        0.49130    0.91407    0.81980    1.000
    H17      H        0.44840    0.90200    0.85840    1.000
    C16      C        0.63380    0.90550    0.81300    1.000
    C17      C        0.69590    0.92456    0.75920    1.000
    H18      H        0.79090    0.91880    0.75420    1.000
    C18      C        0.62140    0.95284    0.71020    1.000
    H19      H        0.66750    0.96650    0.67500    1.000
    C19      C        0.71650    0.87644    0.86430    1.000
    C20      C        0.05580    0.94147    0.27970    1.000
    C21      C        0.14930    0.92258    0.23770    1.000
    H20      H        0.24780    0.92810    0.24710    1.000
    C22      C        0.09520    0.89545    0.18150    1.000
    H21      H        0.15770    0.88270    0.15350    1.000
    C23      C        0.94770    0.88728    0.16710    1.000
    C24      C        0.85720    0.90584    0.21190    1.000
    H22      H        0.75920    0.89990    0.20420    1.000
    C25      C        0.91150    0.93307    0.26770    1.000
    H23      H        0.85000    0.94550    0.29680    1.000
    C26      C        0.88480    0.85997    0.10280    1.000
    C27      C        0.00860    0.15547    0.55220    1.000
    C28      C        0.91890    0.15891    0.60790    1.000
    H24      H        0.90790    0.13860    0.64140    1.000
    C29      C        0.84510    0.19295    0.61360    1.000
    H25      H        0.78380    0.19530    0.65080    1.000
    C30      C        0.86160    0.22352    0.56410    1.000
    C31      C        0.96090    0.22080    0.51530    1.000
    H26      H        0.97890    0.24200    0.48550    1.000
    C32      C        0.03610    0.18732    0.50870    1.000
    H27      H        0.10480    0.18610    0.47530    1.000
    C33      C        0.77260    0.25857    0.56810    1.000
    C34      C        0.24620    0.81499    0.97130    1.000
    H28      H        0.24460    0.81420    0.02530    1.000
    C35      C        0.17440    0.81657    0.84590    1.000
    C36      C        0.10010    0.81963    0.76730    1.000
    H29      H        0.99980    0.82170    0.75690    1.000
    C37      C        0.18090    0.81952    0.70610    1.000
    H30      H        0.13360    0.82070    0.65420    1.000
    C38      C        0.33690    0.81753    0.72200    1.000
    H31      H        0.38920    0.81770    0.68040    1.000
    C39      C        0.40920    0.81533    0.79930    1.000
    H32      H        0.50950    0.81340    0.81040    1.000
    C40      C        0.32630    0.81611    0.85950    1.000
    Cd1      Cd       0.57087    0.83199    0.01467    1.000
    Cd2      Cd       0.90322    0.82066    0.94028    1.000
    N1       N        0.37030    0.81510    0.94063    1.000
    N2       N        0.12410    0.81605    0.91680    1.000
    O1       O        0.67050    0.86577    0.92475    1.000
    O2       O        0.83200    0.86450    0.84792    1.000
    O3       O        0.39270    0.98491    0.66920    1.000
    O4       O        0.96680    0.84961    0.05701    1.000
    O5       O        0.75870    0.84939    0.10320    1.000
    O6       O        0.12110    0.96855    0.33098    1.000
    O7       O        0.77560    0.28369    0.51548    1.000
    O8       O        0.69480    0.26233    0.61875    1.000
    O9       O        0.05890    0.11838    0.53646    1.000
    C41      C        0.17060    0.51798    0.95310    1.000
    C42      C        0.26230    0.49475    0.00610    1.000
    C43      C        0.37070    0.51124    0.06130    1.000
    C44      C        0.38680    0.55068    0.06370    1.000
    C45      C        0.30020    0.57323    0.00880    1.000
    C46      C        0.19490    0.55702    0.95200    1.000
    C47      C        0.10720    0.58270    0.88850    1.000
    H33      H        0.05020    0.56690    0.84950    1.000
    H34      H        0.17230    0.59800    0.86390    1.000
    H35      H        0.04460    0.59910    0.91260    1.000
    C48      C        0.04680    0.50001    0.89860    1.000
    H36      H        0.00420    0.47950    0.92520    1.000
    H37      H        0.97260    0.51890    0.88120    1.000
    C49      C        0.23910    0.45099    0.00300    1.000
    H38      H        0.16770    0.44460    0.95820    1.000
    H39      H        0.20640    0.44270    0.05040    1.000
    H40      H        0.32870    0.43850    0.99850    1.000
    C50      C        0.47110    0.48551    0.11560    1.000
    H41      H        0.51130    0.46570    0.08600    1.000
    H42      H        0.54990    0.50010    0.14520    1.000
    C51      C        0.50380    0.56939    0.12520    1.000
    H43      H        0.51790    0.59550    0.11040    1.000
    H44      H        0.59300    0.55550    0.12760    1.000
    H45      H        0.47360    0.56890    0.17600    1.000
    C52      C        0.32050    0.61695    0.01130    1.000
    H46      H        0.23480    0.63050    0.98600    1.000
    H47      H        0.34980    0.62650    0.06450    1.000
    C53      C        0.02210    0.45989    0.78440    1.000
    C54      C        0.08710    0.44020    0.72980    1.000
    H48      H        0.18390    0.44460    0.72660    1.000
    C55      C        0.00870    0.41407    0.68020    1.000
    H49      H        0.05160    0.40200    0.64160    1.000
    C56      C        0.86620    0.40550    0.68700    1.000
    C57      C        0.80410    0.42456    0.74080    1.000
    H50      H        0.70910    0.41880    0.74580    1.000
    C58      C        0.87860    0.45284    0.78980    1.000
    H51      H        0.83250    0.46650    0.82500    1.000
    C59      C        0.78350    0.37644    0.63570    1.000
    C60      C        0.44420    0.44147    0.22030    1.000
    C61      C        0.35070    0.42258    0.26230    1.000
    H52      H        0.25220    0.42810    0.25290    1.000
    C62      C        0.40480    0.39545    0.31850    1.000
    H53      H        0.34230    0.38270    0.34650    1.000
    C63      C        0.55230    0.38728    0.33290    1.000
    C64      C        0.64280    0.40584    0.28810    1.000
    H54      H        0.74080    0.39990    0.29580    1.000
    C65      C        0.58850    0.43307    0.23230    1.000
    H55      H        0.65000    0.44550    0.20320    1.000
    C66      C        0.61520    0.35997    0.39720    1.000
    C67      C        0.49140    0.65547    0.94780    1.000
    C68      C        0.58110    0.65891    0.89210    1.000
    H56      H        0.59210    0.63860    0.85860    1.000
    C69      C        0.65490    0.69295    0.88640    1.000
    H57      H        0.71620    0.69530    0.84920    1.000
    C70      C        0.63840    0.72352    0.93590    1.000
    C71      C        0.53910    0.72080    0.98470    1.000
    H58      H        0.52110    0.74200    0.01450    1.000
    C72      C        0.46390    0.68732    0.99130    1.000
    H59      H        0.39520    0.68610    0.02470    1.000
    C73      C        0.72740    0.75857    0.93190    1.000
    C74      C        0.25380    0.31499    0.52870    1.000
    H60      H        0.25540    0.31420    0.47470    1.000
    C75      C        0.32560    0.31657    0.65410    1.000
    C76      C        0.39990    0.31963    0.73270    1.000
    H61      H        0.50020    0.32170    0.74310    1.000
    C77      C        0.31910    0.31952    0.79390    1.000
    H62      H        0.36640    0.32070    0.84580    1.000
    C78      C        0.16310    0.31753    0.77800    1.000
    H63      H        0.11080    0.31770    0.81960    1.000
    C79      C        0.09080    0.31533    0.70070    1.000
    H64      H        0.99050    0.31340    0.68960    1.000
    C80      C        0.17370    0.31611    0.64050    1.000
    Cd3      Cd       0.92913    0.33199    0.48533    1.000
    Cd4      Cd       0.59678    0.32066    0.55972    1.000
    N3       N        0.12970    0.31510    0.55937    1.000
    N4       N        0.37590    0.31605    0.58320    1.000
    O10      O        0.82950    0.36577    0.57525    1.000
    O11      O        0.66800    0.36450    0.65208    1.000
    O12      O        0.10730    0.48491    0.83080    1.000
    O13      O        0.53320    0.34961    0.44299    1.000
    O14      O        0.74130    0.34939    0.39680    1.000
    O15      O        0.37890    0.46855    0.16902    1.000
    O16      O        0.72440    0.78369    0.98452    1.000
    O17      O        0.80520    0.76233    0.88125    1.000
    O18      O        0.44110    0.61838    0.96354    1.000
    C81      C        0.67060    0.98202    0.45310    1.000
    C82      C        0.76230    0.00525    0.50610    1.000
    C83      C        0.87070    0.98876    0.56130    1.000
    C84      C        0.88680    0.94932    0.56370    1.000
    C85      C        0.80020    0.92677    0.50880    1.000
    C86      C        0.69490    0.94298    0.45200    1.000
    C87      C        0.60720    0.91730    0.38850    1.000
    H65      H        0.55020    0.93310    0.34950    1.000
    H66      H        0.67230    0.90200    0.36390    1.000
    H67      H        0.54460    0.90090    0.41260    1.000
    C88      C        0.54680    0.99999    0.39860    1.000
    H68      H        0.50420    0.02050    0.42520    1.000
    H69      H        0.47260    0.98110    0.38120    1.000
    C89      C        0.73910    0.04901    0.50300    1.000
    H70      H        0.66770    0.05540    0.45820    1.000
    H71      H        0.70640    0.05730    0.55040    1.000
    H72      H        0.82870    0.06150    0.49850    1.000
    C90      C        0.97110    0.01449    0.61560    1.000
    H73      H        0.01130    0.03430    0.58600    1.000
    H74      H        0.04990    0.99990    0.64520    1.000
    C91      C        0.00380    0.93061    0.62520    1.000
    H75      H        0.01790    0.90450    0.61040    1.000
    H76      H        0.09300    0.94450    0.62760    1.000
    H77      H        0.97360    0.93110    0.67600    1.000
    C92      C        0.82050    0.88305    0.51130    1.000
    H78      H        0.73480    0.86950    0.48600    1.000
    H79      H        0.84980    0.87350    0.56450    1.000
    C93      C        0.52210    0.04011    0.28440    1.000
    C94      C        0.58710    0.05980    0.22980    1.000
    H80      H        0.68390    0.05540    0.22660    1.000
    C95      C        0.50870    0.08593    0.18020    1.000
    H81      H        0.55160    0.09800    0.14160    1.000
    C96      C        0.36620    0.09450    0.18700    1.000
    C97      C        0.30410    0.07544    0.24080    1.000
    H82      H        0.20910    0.08120    0.24580    1.000
    C98      C        0.37860    0.04716    0.28980    1.000
    H83      H        0.33250    0.03350    0.32500    1.000
    C99      C        0.28350    0.12356    0.13570    1.000
    C100     C        0.94420    0.05853    0.72030    1.000
    C101     C        0.85070    0.07742    0.76230    1.000
    H84      H        0.75220    0.07190    0.75290    1.000
    C102     C        0.90480    0.10455    0.81850    1.000
    H85      H        0.84230    0.11730    0.84650    1.000
    C103     C        0.05230    0.11272    0.83290    1.000
    C104     C        0.14280    0.09416    0.78810    1.000
    H86      H        0.24080    0.10010    0.79580    1.000
    C105     C        0.08850    0.06693    0.73230    1.000
    H87      H        0.15000    0.05450    0.70320    1.000
    C106     C        0.11520    0.14003    0.89720    1.000
    C107     C        0.99140    0.84453    0.44780    1.000
    C108     C        0.08110    0.84109    0.39210    1.000
    H88      H        0.09210    0.86140    0.35860    1.000
    C109     C        0.15490    0.80705    0.38640    1.000
    H89      H        0.21620    0.80470    0.34920    1.000
    C110     C        0.13840    0.77648    0.43590    1.000
    C111     C        0.03910    0.77920    0.48470    1.000
    H90      H        0.02110    0.75800    0.51450    1.000
    C112     C        0.96390    0.81268    0.49130    1.000
    H91      H        0.89520    0.81390    0.52470    1.000
    C113     C        0.22740    0.74143    0.43190    1.000
    C114     C        0.75380    0.18501    0.02870    1.000
    H92      H        0.75540    0.18580    0.97470    1.000
    C115     C        0.82560    0.18343    0.15410    1.000
    C116     C        0.89990    0.18037    0.23270    1.000
    H93      H        0.00020    0.17830    0.24310    1.000
    C117     C        0.81910    0.18048    0.29390    1.000
    H94      H        0.86640    0.17930    0.34580    1.000
    C118     C        0.66310    0.18247    0.27800    1.000
    H95      H        0.61080    0.18230    0.31960    1.000
    C119     C        0.59080    0.18467    0.20070    1.000
    H96      H        0.49050    0.18660    0.18960    1.000
    C120     C        0.67370    0.18389    0.14050    1.000
    Cd5      Cd       0.42913    0.16801    0.98533    1.000
    Cd6      Cd       0.09678    0.17934    0.05972    1.000
    N5       N        0.62970    0.18490    0.05937    1.000
    N6       N        0.87590    0.18395    0.08320    1.000
    O19      O        0.32950    0.13423    0.07525    1.000
    O20      O        0.16800    0.13550    0.15208    1.000
    O21      O        0.60730    0.01509    0.33080    1.000
    O22      O        0.03320    0.15039    0.94299    1.000
    O23      O        0.24130    0.15061    0.89680    1.000
    O24      O        0.87890    0.03145    0.66902    1.000
    O25      O        0.22440    0.71631    0.48452    1.000
    O26      O        0.30520    0.73767    0.38125    1.000
    O27      O        0.94110    0.88162    0.46354    1.000
    C121     C        0.82940    0.48202    0.04690    1.000
    C122     C        0.73770    0.50525    0.99390    1.000
    C123     C        0.62930    0.48876    0.93870    1.000
    C124     C        0.61320    0.44932    0.93630    1.000
    C125     C        0.69980    0.42677    0.99120    1.000
    C126     C        0.80510    0.44298    0.04800    1.000
    C127     C        0.89280    0.41730    0.11150    1.000
    H97      H        0.94980    0.43310    0.15050    1.000
    H98      H        0.82770    0.40200    0.13610    1.000
    H99      H        0.95540    0.40090    0.08740    1.000
    C128     C        0.95320    0.49999    0.10140    1.000
    H100     H        0.99580    0.52050    0.07480    1.000
    H101     H        0.02740    0.48110    0.11880    1.000
    C129     C        0.76090    0.54901    0.99700    1.000
    H102     H        0.83230    0.55540    0.04180    1.000
    H103     H        0.79360    0.55730    0.94960    1.000
    H104     H        0.67130    0.56150    0.00150    1.000
    C130     C        0.52890    0.51449    0.88440    1.000
    H105     H        0.48870    0.53430    0.91400    1.000
    H106     H        0.45010    0.49990    0.85480    1.000
    C131     C        0.49620    0.43061    0.87480    1.000
    H107     H        0.48210    0.40450    0.88960    1.000
    H108     H        0.40700    0.44450    0.87240    1.000
    H109     H        0.52640    0.43110    0.82400    1.000
    C132     C        0.67950    0.38305    0.98870    1.000
    H110     H        0.76520    0.36950    0.01400    1.000
    H111     H        0.65020    0.37350    0.93550    1.000
    C133     C        0.97790    0.54011    0.21560    1.000
    C134     C        0.91290    0.55980    0.27020    1.000
    H112     H        0.81610    0.55540    0.27340    1.000
    C135     C        0.99130    0.58593    0.31980    1.000
    H113     H        0.94840    0.59800    0.35840    1.000
    C136     C        0.13380    0.59450    0.31300    1.000
    C137     C        0.19590    0.57544    0.25920    1.000
    H114     H        0.29090    0.58120    0.25420    1.000
    C138     C        0.12140    0.54716    0.21020    1.000
    H115     H        0.16750    0.53350    0.17500    1.000
    C139     C        0.21650    0.62356    0.36430    1.000
    C140     C        0.55580    0.55853    0.77970    1.000
    C141     C        0.64930    0.57742    0.73770    1.000
    H116     H        0.74780    0.57190    0.74710    1.000
    C142     C        0.59520    0.60455    0.68150    1.000
    H117     H        0.65770    0.61730    0.65350    1.000
    C143     C        0.44770    0.61272    0.66710    1.000
    C144     C        0.35720    0.59416    0.71190    1.000
    H118     H        0.25920    0.60010    0.70420    1.000
    C145     C        0.41150    0.56693    0.76770    1.000
    H119     H        0.35000    0.55450    0.79680    1.000
    C146     C        0.38480    0.64003    0.60280    1.000
    C147     C        0.50860    0.34453    0.05220    1.000
    C148     C        0.41890    0.34109    0.10790    1.000
    H120     H        0.40790    0.36140    0.14140    1.000
    C149     C        0.34510    0.30705    0.11360    1.000
    H121     H        0.28380    0.30470    0.15080    1.000
    C150     C        0.36160    0.27648    0.06410    1.000
    C151     C        0.46090    0.27920    0.01530    1.000
    H122     H        0.47890    0.25800    0.98550    1.000
    C152     C        0.53610    0.31268    0.00870    1.000
    H123     H        0.60480    0.31390    0.97530    1.000
    C153     C        0.27260    0.24143    0.06810    1.000
    C154     C        0.74620    0.68501    0.47130    1.000
    H124     H        0.74460    0.68580    0.52530    1.000
    C155     C        0.67440    0.68343    0.34590    1.000
    C156     C        0.60010    0.68037    0.26730    1.000
    H125     H        0.49980    0.67830    0.25690    1.000
    C157     C        0.68090    0.68048    0.20610    1.000
    H126     H        0.63360    0.67930    0.15420    1.000
    C158     C        0.83690    0.68247    0.22200    1.000
    H127     H        0.88920    0.68230    0.18040    1.000
    C159     C        0.90920    0.68467    0.29930    1.000
    H128     H        0.00950    0.68660    0.31040    1.000
    C160     C        0.82630    0.68389    0.35950    1.000
    Cd7      Cd       0.07087    0.66801    0.51467    1.000
    Cd8      Cd       0.40322    0.67934    0.44028    1.000
    N7       N        0.87030    0.68490    0.44063    1.000
    N8       N        0.62410    0.68395    0.41680    1.000
    O28      O        0.17050    0.63423    0.42475    1.000
    O29      O        0.33200    0.63550    0.34792    1.000
    O30      O        0.89270    0.51509    0.16920    1.000
    O31      O        0.46680    0.65039    0.55701    1.000
    O32      O        0.25870    0.65061    0.60320    1.000
    O33      O        0.62110    0.53145    0.83098    1.000
    O34      O        0.27560    0.21631    0.01548    1.000
    O35      O        0.19480    0.23767    0.11875    1.000
    O36      O        0.55890    0.38162    0.03646    1.000
