data_functionalizedCrystal
_audit_creation_method	'EQeq! by Chris Wilmer'
_symmetry_space_group_name_H-M	'P1'
_symmetry_Int_Tables_number	1
_symmetry_cell_setting	triclinic
loop_
_symmetry_equiv_pos_as_xyz
  x,y,z
_cell_length_a	10.906
_cell_length_b	19.769
_cell_length_c	20.212
_cell_angle_alpha	90
_cell_angle_beta	90
_cell_angle_gamma	99.22
loop_
_atom_site_label
_atom_site_type_symbol
_atom_site_fract_x
_atom_site_fract_y
_atom_site_fract_z
_atom_site_charge
Mof_Pr	Pr	0.4676	0.65494	0.87369	1.97
Mof_Pr	Pr	0.66696	0.4172	0.62394	1.571
Mof_Pr	Pr	0.0324	0.84506	0.37369	1.956
Mof_Pr	Pr	0.83304	0.0828	0.12394	1.566
Mof_Pr	Pr	0.5324	0.34506	0.12631	1.969
Mof_Pr	Pr	0.33304	0.5828	0.37606	1.57
Mof_Pr	Pr	0.9676	0.15494	0.62631	1.955
Mof_Pr	Pr	0.16696	0.9172	0.87606	1.565
Mof_Cu	Cu	0.42798	0.66828	0.67265	0.876
Mof_Cu	Cu	0.71154	0.41093	0.82535	0.918
Mof_Cu	Cu	0.07202	0.83172	0.17265	0.875
Mof_Cu	Cu	0.78846	0.08907	0.32535	0.917
Mof_Cu	Cu	0.57202	0.33172	0.32735	0.876
Mof_Cu	Cu	0.28846	0.58907	0.17465	0.918
Mof_Cu	Cu	0.92798	0.16828	0.82735	0.875
Mof_Cu	Cu	0.21154	0.91093	0.67465	0.917
Mof_H 	H 	0.2383	0.3235	0.6806	0.021
Mof_H 	H 	0.136	0.5048	0.8039	0.042
Mof_H 	H 	0.0826	0.4343	0.0782	0.058
Mof_H 	H 	0.9008	0.7529	0.8119	0.035
Mof_H 	H 	0.9933	0.5728	0.6845	0.008
Mof_H 	H 	0.2617	0.1765	0.1806	0.021
Mof_H 	H 	0.364	0.9952	0.3039	0.04
Mof_H 	H 	0.4174	0.0657	0.5782	0.058
Mof_H 	H 	0.5992	0.7471	0.3119	0.036
Mof_H 	H 	0.5067	0.9272	0.1845	0.008
Mof_H 	H 	0.7617	0.6765	0.3194	0.021
Mof_H 	H 	0.864	0.4952	0.1961	0.042
Mof_H 	H 	0.9174	0.5657	0.9218	0.058
Mof_H 	H 	0.0992	0.2471	0.1881	0.035
Mof_H 	H 	0.0067	0.4272	0.3155	0.008
Mof_H 	H 	0.7383	0.8235	0.8194	0.021
Mof_H 	H 	0.636	0.0048	0.6961	0.04
Mof_H 	H 	0.5826	0.9343	0.4218	0.058
Mof_H 	H 	0.4008	0.2529	0.6881	0.036
Mof_H 	H 	0.4933	0.0728	0.8155	0.008
Mof_C 	C 	0.2618	0.4785	0.739	-0.089
Mof_C 	C 	0.2938	0.4236	0.7028	-0.061
Mof_C 	C 	0.2196	0.3593	0.7065	0.007
Mof_C 	C 	0.1179	0.3486	0.7488	-0.121
Mof_C 	C 	0.0859	0.4031	0.7856	-0.035
Mof_C 	C 	0.1577	0.4682	0.7801	-0.008
Mof_C 	C 	0.3321	0.55	0.7317	0.419
Mof_C 	C 	0.416	0.4284	0.6671	0.308
Mof_C 	C 	0.0515	0.2773	0.7588	0.422
Mof_C 	C 	0.9701	0.3941	0.8278	0.315
Mof_C 	C 	0.1264	0.5129	0.0139	-0.036
Mof_C 	C 	0.0776	0.5522	0.966	-0.056
Mof_C 	C 	0.049	0.4607	0.047	0.004
Mof_C 	C 	0.2617	0.5249	0.032	0.32
Mof_C 	C 	0.1598	0.6058	0.9259	0.372
Mof_C 	C 	0.0506	0.6735	0.7057	-0.064
Mof_C 	C 	0.0208	0.7282	0.743	-0.081
Mof_C 	C 	0.9184	0.717	0.7857	-0.001
Mof_C 	C 	0.8429	0.6538	0.7897	-0.034
Mof_C 	C 	0.8727	0.5992	0.7516	-0.1
Mof_C 	C 	0.9748	0.6091	0.7099	0.015
Mof_C 	C 	0.0904	0.7993	0.7348	0.374
Mof_C 	C 	0.7232	0.6463	0.8284	0.313
Mof_C 	C 	0.8043	0.5272	0.7584	0.413
Mof_C 	C 	0.1682	0.6769	0.6648	0.34
Mof_C 	C 	0.2382	0.0215	0.239	-0.085
Mof_C 	C 	0.2062	0.0764	0.2028	-0.063
Mof_C 	C 	0.2804	0.1407	0.2065	0.009
Mof_C 	C 	0.3821	0.1514	0.2488	-0.122
Mof_C 	C 	0.4141	0.0969	0.2856	-0.037
Mof_C 	C 	0.3423	0.0318	0.2801	-0.006
Mof_C 	C 	0.1679	0.95	0.2317	0.415
Mof_C 	C 	0.084	0.0716	0.1671	0.314
Mof_C 	C 	0.4485	0.2227	0.2588	0.423
Mof_C 	C 	0.5299	0.1059	0.3278	0.318
Mof_C 	C 	0.3736	0.9871	0.5139	-0.035
Mof_C 	C 	0.4224	0.9478	0.466	-0.058
Mof_C 	C 	0.451	0.0393	0.547	0.006
Mof_C 	C 	0.2383	0.9751	0.532	0.315
Mof_C 	C 	0.3402	0.8942	0.4259	0.372
Mof_C 	C 	0.4494	0.8265	0.2057	-0.065
Mof_C 	C 	0.4792	0.7718	0.243	-0.078
Mof_C 	C 	0.5816	0.783	0.2857	-0.004
Mof_C 	C 	0.6571	0.8462	0.2897	-0.032
Mof_C 	C 	0.6273	0.9008	0.2516	-0.101
Mof_C 	C 	0.5252	0.8909	0.2099	0.014
Mof_C 	C 	0.4096	0.7007	0.2348	0.374
Mof_C 	C 	0.7768	0.8537	0.3284	0.311
Mof_C 	C 	0.6957	0.9728	0.2584	0.417
Mof_C 	C 	0.3318	0.8231	0.1648	0.34
Mof_C 	C 	0.7382	0.5215	0.261	-0.089
Mof_C 	C 	0.7062	0.5764	0.2972	-0.061
Mof_C 	C 	0.7804	0.6407	0.2935	0.007
Mof_C 	C 	0.8821	0.6514	0.2512	-0.121
Mof_C 	C 	0.9141	0.5969	0.2144	-0.035
Mof_C 	C 	0.8423	0.5318	0.2199	-0.008
Mof_C 	C 	0.6679	0.45	0.2683	0.419
Mof_C 	C 	0.584	0.5716	0.3329	0.308
Mof_C 	C 	0.9485	0.7227	0.2412	0.422
Mof_C 	C 	0.0299	0.6059	0.1722	0.315
Mof_C 	C 	0.8736	0.4871	0.9861	-0.036
Mof_C 	C 	0.9224	0.4478	0.034	-0.056
Mof_C 	C 	0.951	0.5393	0.953	0.004
Mof_C 	C 	0.7383	0.4751	0.968	0.32
Mof_C 	C 	0.8402	0.3942	0.0741	0.372
Mof_C 	C 	0.9494	0.3265	0.2943	-0.064
Mof_C 	C 	0.9792	0.2718	0.257	-0.081
Mof_C 	C 	0.0816	0.283	0.2143	-0.001
Mof_C 	C 	0.1571	0.3462	0.2103	-0.034
Mof_C 	C 	0.1273	0.4008	0.2484	-0.1
Mof_C 	C 	0.0252	0.3909	0.2901	0.015
Mof_C 	C 	0.9096	0.2007	0.2652	0.374
Mof_C 	C 	0.2768	0.3537	0.1716	0.313
Mof_C 	C 	0.1957	0.4728	0.2416	0.413
Mof_C 	C 	0.8318	0.3231	0.3352	0.34
Mof_C 	C 	0.7618	0.9785	0.761	-0.085
Mof_C 	C 	0.7938	0.9236	0.7972	-0.063
Mof_C 	C 	0.7196	0.8593	0.7935	0.009
Mof_C 	C 	0.6179	0.8486	0.7512	-0.122
Mof_C 	C 	0.5859	0.9031	0.7144	-0.037
Mof_C 	C 	0.6577	0.9682	0.7199	-0.006
Mof_C 	C 	0.8321	0.05	0.7683	0.415
Mof_C 	C 	0.916	0.9284	0.8329	0.314
Mof_C 	C 	0.5515	0.7773	0.7412	0.423
Mof_C 	C 	0.4701	0.8941	0.6722	0.318
Mof_C 	C 	0.6264	0.0129	0.4861	-0.035
Mof_C 	C 	0.5776	0.0522	0.534	-0.058
Mof_C 	C 	0.549	0.9607	0.453	0.006
Mof_C 	C 	0.7617	0.0249	0.468	0.315
Mof_C 	C 	0.6598	0.1058	0.5741	0.372
Mof_C 	C 	0.5506	0.1735	0.7943	-0.065
Mof_C 	C 	0.5208	0.2282	0.757	-0.078
Mof_C 	C 	0.4184	0.217	0.7143	-0.004
Mof_C 	C 	0.3429	0.1538	0.7103	-0.032
Mof_C 	C 	0.3727	0.0992	0.7484	-0.101
Mof_C 	C 	0.4748	0.1091	0.7901	0.014
Mof_C 	C 	0.5904	0.2993	0.7652	0.374
Mof_C 	C 	0.2232	0.1463	0.6716	0.311
Mof_C 	C 	0.3043	0.0272	0.7416	0.417
Mof_C 	C 	0.6682	0.1769	0.8352	0.34
Mof_O 	O 	0.3664	0.58411	0.78272	-0.525
Mof_O 	O 	0.3465	0.57271	0.67311	-0.455
Mof_O 	O 	0.5088	0.46642	0.69207	-0.418
Mof_O 	O 	0.4263	0.3921	0.61708	-0.448
Mof_O 	O 	0.0445	0.23568	0.71191	-0.571
Mof_O 	O 	0.0091	0.26273	0.81599	-0.434
Mof_O 	O 	0.869	0.38559	0.79349	-0.383
Mof_O 	O 	0.9761	0.3979	0.88818	-0.26
Mof_O 	O 	0.3065	0.57587	0.06637	-0.362
Mof_O 	O 	0.3239	0.47975	0.01214	-0.287
Mof_O 	O 	0.2754	0.60354	0.92554	-0.521
Mof_O 	O 	0.1088	0.6484	0.8942	-0.32
Mof_O 	O 	0.2685	0.69679	0.69662	-0.393
Mof_O 	O 	0.1612	0.6564	0.607	-0.346
Mof_O 	O 	0.1324	0.81545	0.67725	-0.407
Mof_O 	O 	0.0988	0.83972	0.7831	-0.503
Mof_O 	O 	0.7149	0.6788	0.88107	-0.424
Mof_O 	O 	0.6292	0.60929	0.8026	-0.427
Mof_O 	O 	0.7758	0.49243	0.70695	-0.531
Mof_O 	O 	0.7871	0.5059	0.81714	-0.412
Mof_O 	O 	0.1336	0.91589	0.28272	-0.524
Mof_O 	O 	0.1535	0.92729	0.17311	-0.456
Mof_O 	O 	0.9912	0.03358	0.19207	-0.423
Mof_O 	O 	0.0737	0.1079	0.11708	-0.448
Mof_O 	O 	0.4555	0.26432	0.21191	-0.575
Mof_O 	O 	0.4909	0.23727	0.31599	-0.437
Mof_O 	O 	0.631	0.11441	0.29349	-0.383
Mof_O 	O 	0.5239	0.1021	0.38818	-0.259
Mof_O 	O 	0.1935	0.92413	0.56637	-0.361
Mof_O 	O 	0.1761	0.02025	0.51214	-0.282
Mof_O 	O 	0.2246	0.89646	0.42554	-0.52
Mof_O 	O 	0.3912	0.8516	0.3942	-0.319
Mof_O 	O 	0.2315	0.80321	0.19662	-0.394
Mof_O 	O 	0.3388	0.8436	0.107	-0.346
Mof_O 	O 	0.3676	0.68455	0.17725	-0.406
Mof_O 	O 	0.4012	0.66028	0.2831	-0.502
Mof_O 	O 	0.7851	0.8212	0.38107	-0.422
Mof_O 	O 	0.8708	0.89071	0.3026	-0.423
Mof_O 	O 	0.7242	0.00757	0.20695	-0.534
Mof_O 	O 	0.7129	0.9941	0.31714	-0.411
Mof_O 	O 	0.6336	0.41589	0.21728	-0.525
Mof_O 	O 	0.6535	0.42729	0.32689	-0.455
Mof_O 	O 	0.4912	0.53358	0.30793	-0.418
Mof_O 	O 	0.5737	0.6079	0.38292	-0.448
Mof_O 	O 	0.9555	0.76432	0.28809	-0.571
Mof_O 	O 	0.9909	0.73727	0.18401	-0.434
Mof_O 	O 	0.131	0.61441	0.20651	-0.383
Mof_O 	O 	0.0239	0.6021	0.11182	-0.26
Mof_O 	O 	0.6935	0.42413	0.93363	-0.362
Mof_O 	O 	0.6761	0.52025	0.98786	-0.287
Mof_O 	O 	0.7246	0.39646	0.07446	-0.521
Mof_O 	O 	0.8912	0.3516	0.1058	-0.32
Mof_O 	O 	0.7315	0.30321	0.30338	-0.393
Mof_O 	O 	0.8388	0.3436	0.393	-0.346
Mof_O 	O 	0.8676	0.18455	0.32275	-0.407
Mof_O 	O 	0.9012	0.16028	0.2169	-0.503
Mof_O 	O 	0.2851	0.3212	0.11893	-0.424
Mof_O 	O 	0.3708	0.39071	0.1974	-0.427
Mof_O 	O 	0.2242	0.50757	0.29305	-0.531
Mof_O 	O 	0.2129	0.4941	0.18286	-0.412
Mof_O 	O 	0.8664	0.08411	0.71728	-0.524
Mof_O 	O 	0.8465	0.07271	0.82689	-0.456
Mof_O 	O 	0.0088	0.96642	0.80793	-0.423
Mof_O 	O 	0.9263	0.8921	0.88292	-0.448
Mof_O 	O 	0.5445	0.73568	0.78809	-0.575
Mof_O 	O 	0.5091	0.76273	0.68401	-0.437
Mof_O 	O 	0.369	0.88559	0.70651	-0.383
Mof_O 	O 	0.4761	0.8979	0.61182	-0.259
Mof_O 	O 	0.8065	0.07587	0.43363	-0.361
Mof_O 	O 	0.8239	0.97975	0.48786	-0.282
Mof_O 	O 	0.7754	0.10354	0.57446	-0.52
Mof_O 	O 	0.6088	0.1484	0.6058	-0.319
Mof_O 	O 	0.7685	0.19679	0.80338	-0.394
Mof_O 	O 	0.6612	0.1564	0.893	-0.346
Mof_O 	O 	0.6324	0.31545	0.82275	-0.406
Mof_O 	O 	0.5988	0.33972	0.7169	-0.502
Mof_O 	O 	0.2149	0.1788	0.61893	-0.422
Mof_O 	O 	0.1292	0.10929	0.6974	-0.423
Mof_O 	O 	0.2758	0.99243	0.79305	-0.534
Mof_O 	O 	0.2871	0.0059	0.68286	-0.411
_end
