data_functionalizedCrystal
_audit_creation_method	'EQeq! by Chris Wilmer'
_symmetry_space_group_name_H-M	'P1'
_symmetry_Int_Tables_number	1
_symmetry_cell_setting	triclinic
loop_
_symmetry_equiv_pos_as_xyz
  x,y,z
_cell_length_a	10.0276
_cell_length_b	12.7848
_cell_length_c	12.9622
_cell_angle_alpha	71.1806
_cell_angle_beta	67.2445
_cell_angle_gamma	66.9106
loop_
_atom_site_label
_atom_site_type_symbol
_atom_site_fract_x
_atom_site_fract_y
_atom_site_fract_z
_atom_site_charge
Mof_Co	Co	0.96667	0.61352	0.89778	1.175
Mof_Co	Co	0.25058	0.16721	0.26375	1.189
Mof_Co	Co	0.47797	0.88648	0.60222	1.182
Mof_Co	Co	0.68154	0.33279	0.23625	1.189
Mof_Co	Co	0.03333	0.38648	0.10222	1.175
Mof_Co	Co	0.74942	0.83279	0.73625	1.189
Mof_Co	Co	0.52203	0.11352	0.39778	1.182
Mof_Co	Co	0.31846	0.66721	0.76375	1.189
Mof_H 	H 	0.8592	0.885	0.1554	0.064
Mof_H 	H 	0.0036	0.7509	0.0395	-0.001
Mof_H 	H 	0.6368	0.7252	0.0208	0.001
Mof_H 	H 	0.4837	0.8662	0.1282	0.063
Mof_H 	H 	0.1378	0.9583	0.7419	0.008
Mof_H 	H 	0.1261	0.9167	0.5411	0.151
Mof_H 	H 	0.0113	0.0233	0.6007	0.16
Mof_H 	H 	0.8996	0.615	0.3446	0.06
Mof_H 	H 	0.794	0.7491	0.4605	0.013
Mof_H 	H 	0.3828	0.7748	0.4792	0.001
Mof_H 	H 	0.4781	0.6338	0.3718	0.062
Mof_H 	H 	0.838	0.5417	0.7581	0.004
Mof_H 	H 	0.5839	0.5833	0.9589	0.152
Mof_H 	H 	0.6353	0.4767	0.8993	0.164
Mof_H 	H 	0.1408	0.115	0.8446	0.064
Mof_H 	H 	0.9964	0.2491	0.9605	-0.001
Mof_H 	H 	0.3632	0.2748	0.9792	0.001
Mof_H 	H 	0.5163	0.1338	0.8718	0.063
Mof_H 	H 	0.8622	0.0417	0.2581	0.008
Mof_H 	H 	0.8739	0.0833	0.4589	0.151
Mof_H 	H 	0.9887	0.9767	0.3993	0.16
Mof_H 	H 	0.1004	0.385	0.6554	0.06
Mof_H 	H 	0.206	0.2509	0.5395	0.013
Mof_H 	H 	0.6172	0.2252	0.5208	0.001
Mof_H 	H 	0.5219	0.3662	0.6282	0.062
Mof_H 	H 	0.162	0.4583	0.2419	0.004
Mof_H 	H 	0.4161	0.4167	0.0411	0.152
Mof_H 	H 	0.3647	0.5233	0.1007	0.164
Mof_C 	C 	0.5555	0.9855	0.2227	0.366
Mof_C 	C 	0.6548	0.8935	0.1523	-0.043
Mof_C 	C 	0.8106	0.8552	0.1264	-0.063
Mof_C 	C 	0.8961	0.774	0.0584	0.066
Mof_C 	C 	0.6831	0.7602	0.0464	0.036
Mof_C 	C 	0.5908	0.8435	0.1115	-0.055
Mof_C 	C 	0.031	0.8388	0.7542	0.33
Mof_C 	C 	0.151	0.9047	0.6947	0.102
Mof_C 	C 	0.1181	0.9728	0.5826	-0.416
Mof_C 	C 	0.218	0.0485	0.5013	0.466
Mof_C 	C 	0.7637	0.5145	0.2773	0.368
Mof_C 	C 	0.7006	0.6065	0.3477	-0.048
Mof_C 	C 	0.7922	0.6448	0.3736	-0.052
Mof_C 	C 	0.7285	0.726	0.4416	0.045
Mof_C 	C 	0.4897	0.7398	0.4536	0.033
Mof_C 	C 	0.5458	0.6565	0.3885	-0.051
Mof_C 	C 	0.624	0.6612	0.7458	0.317
Mof_C 	C 	0.7504	0.5953	0.8053	0.108
Mof_C 	C 	0.6735	0.5272	0.9174	-0.422
Mof_C 	C 	0.7678	0.4515	0.9987	0.453
Mof_C 	C 	0.4445	0.0145	0.7773	0.366
Mof_C 	C 	0.3452	0.1065	0.8477	-0.043
Mof_C 	C 	0.1894	0.1448	0.8736	-0.063
Mof_C 	C 	0.1039	0.226	0.9416	0.066
Mof_C 	C 	0.3169	0.2398	0.9536	0.036
Mof_C 	C 	0.4092	0.1565	0.8885	-0.055
Mof_C 	C 	0.969	0.1612	0.2458	0.33
Mof_C 	C 	0.849	0.0953	0.3053	0.102
Mof_C 	C 	0.8819	0.0272	0.4174	-0.416
Mof_C 	C 	0.782	0.9515	0.4987	0.466
Mof_C 	C 	0.2363	0.4855	0.7227	0.368
Mof_C 	C 	0.2994	0.3935	0.6523	-0.048
Mof_C 	C 	0.2078	0.3552	0.6264	-0.052
Mof_C 	C 	0.2715	0.274	0.5584	0.045
Mof_C 	C 	0.5103	0.2602	0.5464	0.033
Mof_C 	C 	0.4542	0.3435	0.6115	-0.051
Mof_C 	C 	0.376	0.3388	0.2542	0.317
Mof_C 	C 	0.2496	0.4047	0.1947	0.108
Mof_C 	C 	0.3265	0.4728	0.0826	-0.422
Mof_C 	C 	0.2322	0.5485	0.0013	0.453
Mof_N 	N 	0.8343	0.7261	0.0179	-0.216
Mof_N 	N 	0.5783	0.7739	0.4821	-0.215
Mof_N 	N 	0.1657	0.2739	0.9821	-0.216
Mof_N 	N 	0.4217	0.2261	0.5179	-0.215
Mof_O 	O 	0.61424	0.00682	0.2797	-0.424
Mof_O 	O 	0.42287	0.03116	0.2155	-0.45
Mof_O 	O 	0.08026	0.73428	0.7958	-0.543
Mof_O 	O 	0.8945	0.8933	0.7643	-0.426
Mof_O 	O 	0.29965	0.8242	0.6749	-0.506
Mof_O 	O 	0.35685	0.0234	0.4967	-0.556
Mof_O 	O 	0.1549	0.126	0.4318	-0.483
Mof_O 	O 	0.90076	0.49318	0.2203	-0.422
Mof_O 	O 	0.66953	0.46884	0.2845	-0.45
Mof_O 	O 	0.61034	0.76572	0.7042	-0.543
Mof_O 	O 	0.5521	0.6067	0.7357	-0.415
Mof_O 	O 	0.79875	0.6758	0.8251	-0.51
Mof_O 	O 	0.87695	0.4766	0.0033	-0.544
Mof_O 	O 	0.7127	0.374	0.0682	-0.474
Mof_O 	O 	0.38576	0.99318	0.7203	-0.424
Mof_O 	O 	0.57713	0.96884	0.7845	-0.45
Mof_O 	O 	0.91974	0.26572	0.2042	-0.543
Mof_O 	O 	0.1055	0.1067	0.2357	-0.426
Mof_O 	O 	0.70035	0.1758	0.3251	-0.506
Mof_O 	O 	0.64315	0.9766	0.5033	-0.556
Mof_O 	O 	0.8451	0.874	0.5682	-0.483
Mof_O 	O 	0.09924	0.50682	0.7797	-0.422
Mof_O 	O 	0.33047	0.53116	0.7155	-0.45
Mof_O 	O 	0.38966	0.23428	0.2958	-0.543
Mof_O 	O 	0.4479	0.3933	0.2643	-0.415
Mof_O 	O 	0.20125	0.3242	0.1749	-0.51
Mof_O 	O 	0.12305	0.5234	0.9967	-0.544
Mof_O 	O 	0.2873	0.626	0.9318	-0.474
_end
