data_functionalizedCrystal
_audit_creation_method	'EQeq! by Chris Wilmer'
_symmetry_space_group_name_H-M	'P1'
_symmetry_Int_Tables_number	1
_symmetry_cell_setting	triclinic
loop_
_symmetry_equiv_pos_as_xyz
  x,y,z
_cell_length_a	6.1635
_cell_length_b	12.2872
_cell_length_c	22.826
_cell_angle_alpha	90
_cell_angle_beta	90
_cell_angle_gamma	89.6458
loop_
_atom_site_label
_atom_site_type_symbol
_atom_site_fract_x
_atom_site_fract_y
_atom_site_fract_z
_atom_site_charge
Mof_La	La	0.0413	0.4437	0.64795	1.746
Mof_La	La	0.5413	0.9437	0.85205	1.873
Mof_La	La	0.9587	0.5563	0.35205	1.813
Mof_La	La	0.4587	0.0563	0.14795	1.697
Mof_Cu	Cu	-0	0.5	-0	0.9
Mof_Cu	Cu	0.5	0	0.5	0.91
Mof_H 	H 	0.9529	0.9265	0.6778	0.056
Mof_H 	H 	0.9367	0.2504	0.1591	0.018
Mof_H 	H 	0.0471	0.0735	0.3222	0.061
Mof_H 	H 	0.0706	0.3937	0.2121	0.021
Mof_H 	H 	0.6669	0.8923	0.6163	0.045
Mof_H 	H 	0.5706	0.8937	0.2879	0.04
Mof_H 	H 	0.3331	0.1077	0.3837	0.05
Mof_H 	H 	0.9294	0.6063	0.7879	0.078
Mof_H 	H 	0.4294	0.1063	0.7121	0.025
Mof_H 	H 	0.5471	0.5735	0.1778	0.058
Mof_H 	H 	0.0633	0.7496	0.8409	-0.01
Mof_H 	H 	0.5633	0.2496	0.6591	0.014
Mof_H 	H 	0.8331	0.6077	0.1163	0.049
Mof_H 	H 	0.4367	0.7504	0.3409	0.01
Mof_H 	H 	0.1669	0.3923	0.8837	0.04
Mof_H 	H 	0.4529	0.4265	0.8222	0.06
Mof_C 	C 	0.0659	0.0303	0.35529	-0.027
Mof_C 	C 	0.6563	0.7767	0.73614	0.337
Mof_C 	C 	0.8437	0.7233	0.23614	0.343
Mof_C 	C 	0.2376	0.0516	0.39231	-0.006
Mof_C 	C 	0.2841	0.3055	0.07547	0.394
Mof_C 	C 	0.5659	0.5303	0.14471	0.012
Mof_C 	C 	0.5455	0.6095	0.91405	-0.056
Mof_C 	C 	0.8865	0.1199	0.77117	-0.02
Mof_C 	C 	0.9565	0.216	0.74434	0.01
Mof_C 	C 	0.1563	0.2767	0.76386	0.309
Mof_C 	C 	0.5222	0.5472	0.6886	0.398
Mof_C 	C 	0.5673	0.1323	0.72056	0.02
Mof_C 	C 	0.626	0.4108	0.04797	-0.053
Mof_C 	C 	0.126	0.9108	0.45203	-0.024
Mof_C 	C 	0.7159	0.6945	0.92453	0.409
Mof_C 	C 	0.4341	0.4697	0.85529	0.008
Mof_C 	C 	0.9545	0.8905	0.41405	-0.034
Mof_C 	C 	0.374	0.5892	0.95203	0.011
Mof_C 	C 	0.3865	0.6199	0.72883	-0.046
Mof_C 	C 	0.0222	0.0472	0.8114	0.339
Mof_C 	C 	0.4778	0.4528	0.3114	0.403
Mof_C 	C 	0.4545	0.3905	0.08595	-0.043
Mof_C 	C 	0.874	0.0892	0.54797	0.001
Mof_C 	C 	0.7841	0.8055	0.42453	0.402
Mof_C 	C 	0.9341	0.9697	0.64471	0.062
Mof_C 	C 	0.2159	0.1945	0.57547	0.405
Mof_C 	C 	0.9327	0.3677	0.22056	0.041
Mof_C 	C 	0.4565	0.716	0.75566	-0.011
Mof_C 	C 	0.8261	0.1497	0.49176	0.297
Mof_C 	C 	0.0455	0.1095	0.58595	-0.082
Mof_C 	C 	0.0673	0.6323	0.77944	-0.053
Mof_C 	C 	0.6135	0.3801	0.27117	-0.045
Mof_C 	C 	0.3261	0.6497	0.00824	0.268
Mof_C 	C 	0.9778	0.9528	0.1886	0.41
Mof_C 	C 	0.5435	0.284	0.24434	-0.015
Mof_C 	C 	0.7376	0.5516	0.10769	0.02
Mof_C 	C 	0.4327	0.8677	0.27944	0.021
Mof_C 	C 	0.0435	0.784	0.25566	-0.019
Mof_C 	C 	0.6452	0.2206	0.68964	0.028
Mof_C 	C 	0.3548	0.7794	0.31036	0.033
Mof_C 	C 	0.8548	0.2794	0.18964	0.019
Mof_C 	C 	0.7624	0.9484	0.60769	0.042
Mof_C 	C 	0.2624	0.4484	0.89231	0.023
Mof_C 	C 	0.6739	0.3503	0.99176	0.339
Mof_C 	C 	0.1739	0.8503	0.50824	0.305
Mof_C 	C 	0.1135	0.8801	0.22883	-0.043
Mof_C 	C 	0.1452	0.7206	0.81036	0.064
Mof_C 	C 	0.3437	0.2233	0.26386	0.337
Mof_N 	N 	0.0746	0.0505	0.63477	-0.12
Mof_N 	N 	0.3159	0.9164	0.23789	-0.156
Mof_N 	N 	0.7339	0.0086	0.55938	-0.204
Mof_N 	N 	0.2661	0.9914	0.44062	-0.159
Mof_N 	N 	0.7661	0.4914	0.05938	-0.179
Mof_N 	N 	0.5746	0.5505	0.86523	-0.087
Mof_N 	N 	0.4254	0.4495	0.13477	-0.092
Mof_N 	N 	0.6633	0.2349	0.20299	-0.178
Mof_N 	N 	0.2339	0.5086	0.94062	-0.184
Mof_N 	N 	0.8159	0.4164	0.26211	-0.172
Mof_N 	N 	0.9254	0.9495	0.36523	-0.068
Mof_N 	N 	0.3367	0.7651	0.79701	-0.19
Mof_N 	N 	0.1841	0.5836	0.73789	-0.158
Mof_N 	N 	0.8367	0.2651	0.70299	-0.176
Mof_N 	N 	0.1633	0.7349	0.29701	-0.183
Mof_N 	N 	0.6841	0.0836	0.76211	-0.182
Mof_O 	O 	0.223	0.3505	0.73017	-0.423
Mof_O 	O 	0.723	0.8505	0.76983	-0.422
Mof_O 	O 	0.9227	0.0108	0.85533	-0.485
Mof_O 	O 	0.7684	0.7459	0.1875	-0.283
Mof_O 	O 	0.3723	0.1685	0.54401	-0.356
Mof_O 	O 	0.0773	0.9892	0.14467	-0.484
Mof_O 	O 	0.1277	0.3315	0.04401	-0.371
Mof_O 	O 	0.1954	0.2826	0.60283	-0.496
Mof_O 	O 	0.7316	0.7541	0.6875	-0.276
Mof_O 	O 	0.2316	0.2541	0.8125	-0.285
Mof_O 	O 	0.0685	0.7667	0.5183	-0.299
Mof_O 	O 	0.8179	0.3914	0.95982	-0.346
Mof_O 	O 	0.5773	0.4892	0.35533	-0.506
Mof_O 	O 	0.4227	0.5108	0.64467	-0.496
Mof_O 	O 	0.2888	0.4766	0.29729	-0.465
Mof_O 	O 	0.277	0.1495	0.23017	-0.432
Mof_O 	O 	0.8723	0.6685	0.95599	-0.324
Mof_O 	O 	0.6277	0.8315	0.45599	-0.342
Mof_O 	O 	0.1821	0.6086	0.04018	-0.364
Mof_O 	O 	0.7112	0.5234	0.70271	-0.446
Mof_O 	O 	0.6821	0.1086	0.45982	-0.366
Mof_O 	O 	0.5685	0.2667	0.9817	-0.29
Mof_O 	O 	0.8046	0.7174	0.39717	-0.495
Mof_O 	O 	0.3046	0.2174	0.10283	-0.496
Mof_O 	O 	0.6954	0.7826	0.89717	-0.493
Mof_O 	O 	0.3179	0.8914	0.54018	-0.351
Mof_O 	O 	0.9315	0.2333	0.4817	-0.284
Mof_O 	O 	0.7888	0.9766	0.20271	-0.436
Mof_O 	O 	0.4315	0.7333	0.0183	-0.295
Mof_O 	O 	0.2684	0.2459	0.3125	-0.289
Mof_O 	O 	0.777	0.6495	0.26983	-0.432
Mof_O 	O 	0.2112	0.0234	0.79729	-0.471
_end
