data_functionalizedCrystal
_audit_creation_method	'EQeq! by Chris Wilmer'
_symmetry_space_group_name_H-M	'P1'
_symmetry_Int_Tables_number	1
_symmetry_cell_setting	triclinic
loop_
_symmetry_equiv_pos_as_xyz
  x,y,z
_cell_length_a	13.8669
_cell_length_b	14.8932
_cell_length_c	15.0273
_cell_angle_alpha	119.188
_cell_angle_beta	116.933
_cell_angle_gamma	90.9763
loop_
_atom_site_label
_atom_site_type_symbol
_atom_site_fract_x
_atom_site_fract_y
_atom_site_fract_z
_atom_site_charge
Mof_Mn	Mn	0.28716	0.03716	0.07432	0.793
Mof_Mn	Mn	0.71284	0.96284	0.92568	0.991
Mof_Mn	Mn	-0	0	-0	0.669
Mof_Mn	Mn	0.5	0	-0	0.69
Mof_H 	H 	0.3535	0.0298	0.4018	0.046
Mof_H 	H 	0.0684	0.1155	0.2798	0.029
Mof_H 	H 	0.0436	0.1296	0.43	0.044
Mof_H 	H 	0.0521	0.1289	0.6142	0.043
Mof_H 	H 	0.0971	0.1202	0.7788	0.035
Mof_H 	H 	0.3719	0.0287	0.784	0.051
Mof_H 	H 	0.3936	0.906	0.5976	-0.002
Mof_H 	H 	0.389	0.9063	0.4896	-0.012
Mof_H 	H 	0.1899	0.845	0.3828	0.177
Mof_H 	H 	0.2441	0.7623	0.4132	0.165
Mof_H 	H 	0.1964	0.8417	0.4902	0.181
Mof_H 	H 	0.5075	0.0946	0.6282	-0.019
Mof_H 	H 	0.5124	0.0966	0.7376	-0.006
Mof_H 	H 	0.4357	0.2437	0.773	0.179
Mof_H 	H 	0.56	0.2708	0.7956	0.175
Mof_H 	H 	0.451	0.2462	0.6748	0.17
Mof_H 	H 	0.5483	0.372	0.4018	0.051
Mof_H 	H 	0.7114	0.1643	0.2798	0.027
Mof_H 	H 	0.8864	0.3004	0.43	0.055
Mof_H 	H 	0.0621	0.4853	0.6142	0.06
Mof_H 	H 	0.1817	0.6586	0.7788	0.033
Mof_H 	H 	0.9121	0.7553	0.784	0.05
Mof_H 	H 	0.704	0.6916	0.5976	0.015
Mof_H 	H 	0.6006	0.5833	0.4896	0.004
Mof_H 	H 	0.6929	0.5378	0.3828	0.151
Mof_H 	H 	0.6691	0.6509	0.4132	0.146
Mof_H 	H 	0.7938	0.6485	0.4902	0.158
Mof_H 	H 	0.6207	0.5336	0.6282	0.004
Mof_H 	H 	0.7252	0.641	0.7376	0.017
Mof_H 	H 	0.8373	0.5293	0.773	0.169
Mof_H 	H 	0.7356	0.5248	0.7956	0.164
Mof_H 	H 	0.7238	0.4286	0.6748	0.158
Mof_H 	H 	0.6465	0.9702	0.5982	0.059
Mof_H 	H 	0.9316	0.8845	0.7202	0.045
Mof_H 	H 	0.9564	0.8704	0.57	0.06
Mof_H 	H 	0.9479	0.8711	0.3858	0.06
Mof_H 	H 	0.9029	0.8798	0.2212	0.037
Mof_H 	H 	0.6281	0.9713	0.216	0.055
Mof_H 	H 	0.6064	0.094	0.4024	0.03
Mof_H 	H 	0.611	0.0937	0.5104	0.021
Mof_H 	H 	0.8101	0.155	0.6172	0.135
Mof_H 	H 	0.7559	0.2377	0.5868	0.133
Mof_H 	H 	0.8036	0.1583	0.5098	0.136
Mof_H 	H 	0.4925	0.9054	0.3718	0.031
Mof_H 	H 	0.4876	0.9034	0.2624	0.038
Mof_H 	H 	0.5643	0.7563	0.227	0.128
Mof_H 	H 	0.44	0.7292	0.2044	0.121
Mof_H 	H 	0.549	0.7538	0.3252	0.127
Mof_H 	H 	0.4517	0.628	0.5982	0.055
Mof_H 	H 	0.2886	0.8357	0.7202	0.046
Mof_H 	H 	0.1136	0.6996	0.57	0.051
Mof_H 	H 	0.9379	0.5147	0.3858	0.039
Mof_H 	H 	0.8183	0.3414	0.2212	0.039
Mof_H 	H 	0.0879	0.2447	0.216	0.058
Mof_H 	H 	0.296	0.3084	0.4024	0.013
Mof_H 	H 	0.3994	0.4167	0.5104	0.003
Mof_H 	H 	0.3071	0.4622	0.6172	0.162
Mof_H 	H 	0.3309	0.3491	0.5868	0.154
Mof_H 	H 	0.2062	0.3515	0.5098	0.161
Mof_H 	H 	0.3793	0.4664	0.3718	0.007
Mof_H 	H 	0.2748	0.359	0.2624	0.011
Mof_H 	H 	0.1627	0.4707	0.227	0.136
Mof_H 	H 	0.2644	0.4752	0.2044	0.13
Mof_H 	H 	0.2762	0.5714	0.3252	0.138
Mof_C 	C 	0.22908	0.05948	0.22996	0.32
Mof_C 	C 	0.21228	0.07108	0.32636	-0.091
Mof_C 	C 	0.2907	0.0496	0.4074	-0.054
Mof_C 	C 	0.27576	0.05756	0.49532	0.015
Mof_C 	C 	0.12103	0.10083	0.33506	-0.012
Mof_C 	C 	0.10604	0.10934	0.42408	-0.082
Mof_C 	C 	0.18341	0.08791	0.50382	-0.007
Mof_C 	C 	0.18826	0.08766	0.60392	-0.011
Mof_C 	C 	0.11744	0.10974	0.64908	-0.077
Mof_C 	C 	0.14391	0.10331	0.74602	-0.006
Mof_C 	C 	0.26217	0.06287	0.89794	0.324
Mof_C 	C 	0.23658	0.07288	0.79576	-0.082
Mof_C 	C 	0.30785	0.04975	0.7501	-0.056
Mof_C 	C 	0.28355	0.05795	0.6549	0.022
Mof_C 	C 	0.34762	0.03532	0.59064	-0.125
Mof_C 	C 	0.3491	0.9176	0.5328	0.155
Mof_C 	C 	0.2351	0.8345	0.4474	-0.513
Mof_C 	C 	0.4704	0.1113	0.675	0.128
Mof_C 	C 	0.4801	0.2279	0.7346	-0.507
Mof_C 	C 	0.50088	0.17048	0.22996	0.325
Mof_C 	C 	0.61408	0.25528	0.32636	-0.092
Mof_C 	C 	0.6167	0.3578	0.4074	-0.041
Mof_C 	C 	0.71956	0.43776	0.49532	0.007
Mof_C 	C 	0.71403	0.23423	0.33506	-0.002
Mof_C 	C 	0.81804	0.31474	0.42408	-0.078
Mof_C 	C 	0.82041	0.41591	0.50382	-0.004
Mof_C 	C 	0.91566	0.51626	0.60392	0.029
Mof_C 	C 	0.03164	0.53934	0.64908	-0.111
Mof_C 	C 	0.10211	0.64271	0.74602	0.025
Mof_C 	C 	0.13577	0.83507	0.89794	0.332
Mof_C 	C 	0.05918	0.72288	0.79576	-0.105
Mof_C 	C 	0.94225	0.70035	0.7501	-0.013
Mof_C 	C 	0.87135	0.59695	0.6549	-0.004
Mof_C 	C 	0.74302	0.55532	0.59064	-0.062
Mof_C 	C 	0.6837	0.6152	0.5328	0.069
Mof_C 	C 	0.7123	0.6129	0.4474	-0.444
Mof_C 	C 	0.7046	0.5637	0.675	0.079
Mof_C 	C 	0.7545	0.5067	0.7346	-0.466
Mof_C 	C 	0.77092	0.94052	0.77004	0.323
Mof_C 	C 	0.78772	0.92892	0.67364	-0.076
Mof_C 	C 	0.7093	0.9504	0.5926	-0.031
Mof_C 	C 	0.72424	0.94244	0.50468	-0.001
Mof_C 	C 	0.87897	0.89917	0.66494	0.001
Mof_C 	C 	0.89396	0.89066	0.57592	-0.074
Mof_C 	C 	0.81659	0.91209	0.49618	0.009
Mof_C 	C 	0.81174	0.91234	0.39608	0.013
Mof_C 	C 	0.88256	0.89026	0.35092	-0.081
Mof_C 	C 	0.85609	0.89669	0.25398	0.015
Mof_C 	C 	0.73783	0.93713	0.10206	0.34
Mof_C 	C 	0.76342	0.92712	0.20424	-0.092
Mof_C 	C 	0.69215	0.95025	0.2499	-0.027
Mof_C 	C 	0.71645	0.94205	0.3451	-0.003
Mof_C 	C 	0.65238	0.96468	0.40936	-0.002
Mof_C 	C 	0.6509	0.0824	0.4672	-0.014
Mof_C 	C 	0.7649	0.1655	0.5526	-0.384
Mof_C 	C 	0.5296	0.8887	0.325	0.009
Mof_C 	C 	0.5199	0.7721	0.2654	-0.378
Mof_C 	C 	0.49912	0.82952	0.77004	0.321
Mof_C 	C 	0.38592	0.74472	0.67364	-0.077
Mof_C 	C 	0.3833	0.6422	0.5926	-0.043
Mof_C 	C 	0.28044	0.56224	0.50468	0.006
Mof_C 	C 	0.28597	0.76577	0.66494	-0.006
Mof_C 	C 	0.18196	0.68526	0.57592	-0.082
Mof_C 	C 	0.17959	0.58409	0.49618	0.01
Mof_C 	C 	0.08434	0.48374	0.39608	-0.036
Mof_C 	C 	0.96836	0.46066	0.35092	-0.035
Mof_C 	C 	0.89789	0.35729	0.25398	-0.027
Mof_C 	C 	0.86423	0.16493	0.10206	0.327
Mof_C 	C 	0.94082	0.27712	0.20424	-0.057
Mof_C 	C 	0.05775	0.29965	0.2499	-0.086
Mof_C 	C 	0.12865	0.40305	0.3451	0.03
Mof_C 	C 	0.25698	0.44468	0.40936	-0.07
Mof_C 	C 	0.3163	0.3848	0.4672	0.078
Mof_C 	C 	0.2877	0.3871	0.5526	-0.458
Mof_C 	C 	0.2954	0.4363	0.325	0.062
Mof_C 	C 	0.2455	0.4933	0.2654	-0.42
Mof_O 	O 	0.30351	0.02061	0.21652	-0.364
Mof_O 	O 	0.16648	0.08968	0.16276	-0.401
Mof_O 	O 	0.33095	0.01235	0.92432	-0.379
Mof_O 	O 	0.21454	0.10194	0.95574	-0.312
Mof_O 	O 	0.41301	0.19591	0.21652	-0.352
Mof_O 	O 	0.49628	0.07308	0.16276	-0.409
Mof_O 	O 	0.09337	0.91197	0.92432	-0.353
Mof_O 	O 	0.2412	0.8538	0.95574	-0.296
Mof_O 	O 	0.69649	0.97939	0.78348	-0.337
Mof_O 	O 	0.83352	0.91032	0.83724	-0.363
Mof_O 	O 	0.66905	0.98765	0.07568	-0.4
Mof_O 	O 	0.78546	0.89806	0.04426	-0.362
Mof_O 	O 	0.58699	0.80409	0.78348	-0.349
Mof_O 	O 	0.50372	0.92692	0.83724	-0.362
Mof_O 	O 	0.90663	0.08803	0.07568	-0.423
Mof_O 	O 	0.7588	0.1462	0.04426	-0.387
_end
