# CIF file generated by openbabel 3.1.0, see https://openbabel.org
data_I
_chemical_name_common 'image0'
_cell_length_a 10.996
_cell_length_b 14.0189
_cell_length_c 14.0271
_cell_angle_alpha 61.9
_cell_angle_beta 80.585
_cell_angle_gamma 85.441
_space_group_name_H-M_alt 'P 1'
_space_group_name_Hall 'P 1'
loop_
    _symmetry_equiv_pos_as_xyz
    x,y,z
loop_
    _atom_site_label
    _atom_site_type_symbol
    _atom_site_fract_x
    _atom_site_fract_y
    _atom_site_fract_z
    _atom_site_occupancy
    Cd1      Cd       0.25080    0.47396    0.27573    1.000
    N1       N        0.33610    0.45500    0.58890    1.000
    N2       N        0.29550    0.48880    0.42770    1.000
    N3       N        0.16850    0.49540    0.95990    1.000
    N4       N        0.20870    0.45790    0.12270    1.000
    N5       N        0.01720    0.18460    0.51100    1.000
    N6       N        0.10570    0.33870    0.39060    1.000
    N7       N        0.53860    0.20800    0.36040    1.000
    N8       N        0.40500    0.34050    0.30020    1.000
    N9       N        0.99130    0.75810    0.17570    1.000
    N10      N        0.09800    0.60920    0.25180    1.000
    N11      N        0.46640    0.77660    0.04720    1.000
    N12      N        0.38530    0.61540    0.14830    1.000
    C1       C        0.29600    0.41510    0.53000    1.000
    H1       H        0.27140    0.34380    0.55790    1.000
    C2       C        0.33670    0.58110    0.42180    1.000
    H2       H        0.34520    0.64780    0.35940    1.000
    C3       C        0.36320    0.56130    0.51990    1.000
    H3       H        0.39380    0.61030    0.53730    1.000
    C4       C        0.21560    0.53190    0.01880    1.000
    H4       H        0.24890    0.60050    0.99040    1.000
    C5       C        0.15400    0.37000    0.12830    1.000
    H5       H        0.13680    0.30470    0.19130    1.000
    C6       C        0.12960    0.39240    0.02980    1.000
    H6       H        0.09290    0.34640    0.01210    1.000
    C7       C        0.34940    0.39510    0.70570    1.000
    H7       H        0.42930    0.41130    0.71520    1.000
    H8       H        0.34720    0.31820    0.72870    1.000
    C8       C        0.25060    0.42140    0.77850    1.000
    H9       H        0.25470    0.36800    0.85370    1.000
    H10      H        0.17080    0.41420    0.76160    1.000
    C9       C        0.25830    0.53300    0.76940    1.000
    H11      H        0.33790    0.54020    0.78660    1.000
    H12      H        0.25430    0.58640    0.69420    1.000
    C10      C        0.15870    0.55830    0.84240    1.000
    H13      H        0.16220    0.63470    0.82140    1.000
    H14      H        0.07900    0.54430    0.83050    1.000
    C11      C        0.12220    0.23490    0.45350    1.000
    H15      H        0.19850    0.20060    0.45730    1.000
    C12      C        0.98060    0.35330    0.41090    1.000
    H16      H        0.93980    0.41910    0.37880    1.000
    C13      C        0.92610    0.25910    0.48370    1.000
    H17      H        0.84240    0.24740    0.51000    1.000
    C14      C        0.00200    0.06940    0.59130    1.000
    H18      H        0.94290    0.06300    0.65350    1.000
    H19      H        0.08020    0.04090    0.61710    1.000
    C15      C        0.95850    0.00220    0.54480    1.000
    H20      H        0.94430    0.92900    0.60310    1.000
    H21      H        0.88000    0.03090    0.51980    1.000
    C16      C        0.46000    0.27360    0.38460    1.000
    H22      H        0.44570    0.27230    0.45240    1.000
    C17      C        0.45330    0.31560    0.21830    1.000
    H23      H        0.43270    0.35000    0.14790    1.000
    C18      C        0.53510    0.23400    0.25420    1.000
    H24      H        0.58010    0.20190    0.21470    1.000
    C19      C        0.61320    0.12160    0.43530    1.000
    H25      H        0.61320    0.13070    0.49960    1.000
    H26      H        0.69770    0.12760    0.39960    1.000
    C20      C        0.56450    0.00990    0.46970    1.000
    H27      H        0.56650    0.00080    0.40510    1.000
    H28      H        0.61890    0.95600    0.51580    1.000
    C21      C        0.06510    0.68480    0.15990    1.000
    H29      H        0.09000    0.68710    0.09220    1.000
    C22      C        0.04200    0.63540    0.33120    1.000
    H30      H        0.04860    0.59660    0.40520    1.000
    C23      C        0.97550    0.72680    0.28410    1.000
    H31      H        0.92780    0.76180    0.31950    1.000
    C24      C        0.94010    0.85510    0.09030    1.000
    H32      H        0.86140    0.87310    0.12080    1.000
    H33      H        0.92610    0.84020    0.03210    1.000
    C25      C        0.02650    0.95000    0.04420    1.000
    H34      H        0.10520    0.93200    0.01370    1.000
    H35      H        0.04040    0.96490    0.10230    1.000
    C26      C        0.37630    0.71730    0.12580    1.000
    H36      H        0.31500    0.74520    0.15990    1.000
    C27      C        0.48650    0.61020    0.07920    1.000
    H37      H        0.51550    0.54770    0.07550    1.000
    C28      C        0.53760    0.70830    0.01790    1.000
    H38      H        0.60770    0.72600    0.96580    1.000
    C29      C        0.49160    0.89230    0.00170    1.000
    H39      H        0.52440    0.92000    0.92500    1.000
    H40      H        0.41410    0.92910    0.00630    1.000
    C30      C        0.57550    0.91930    0.05380    1.000
    H41      H        0.64890    0.87480    0.05920    1.000
    H42      H        0.53720    0.90180    0.12750    1.000
    C31      C        0.61360    0.03730    0.99470    1.000
    H43      H        0.67830    0.04760    0.02840    1.000
    H44      H        0.64620    0.05710    0.91920    1.000
    Cd2      Cd       0.74920    0.52604    0.72427    1.000
    N13      N        0.66390    0.54500    0.41110    1.000
    N14      N        0.70450    0.51120    0.57230    1.000
    N15      N        0.83150    0.50460    0.04010    1.000
    N16      N        0.79130    0.54210    0.87730    1.000
    N17      N        0.98280    0.81540    0.48900    1.000
    N18      N        0.89430    0.66130    0.60940    1.000
    N19      N        0.46140    0.79200    0.63960    1.000
    N20      N        0.59500    0.65950    0.69980    1.000
    N21      N        0.00870    0.24190    0.82430    1.000
    N22      N        0.90200    0.39080    0.74820    1.000
    N23      N        0.53360    0.22340    0.95280    1.000
    N24      N        0.61470    0.38460    0.85170    1.000
    C32      C        0.70400    0.58490    0.47000    1.000
    H45      H        0.72860    0.65620    0.44210    1.000
    C33      C        0.66330    0.41890    0.57820    1.000
    H46      H        0.65480    0.35220    0.64060    1.000
    C34      C        0.63680    0.43870    0.48010    1.000
    H47      H        0.60620    0.38970    0.46270    1.000
    C35      C        0.78440    0.46810    0.98120    1.000
    H48      H        0.75110    0.39950    0.00960    1.000
    C36      C        0.84600    0.63000    0.87170    1.000
    H49      H        0.86320    0.69530    0.80870    1.000
    C37      C        0.87040    0.60760    0.97020    1.000
    H50      H        0.90710    0.65360    0.98790    1.000
    C38      C        0.65060    0.60490    0.29430    1.000
    H51      H        0.57070    0.58870    0.28480    1.000
    H52      H        0.65280    0.68180    0.27130    1.000
    C39      C        0.74940    0.57860    0.22150    1.000
    H53      H        0.74530    0.63200    0.14630    1.000
    H54      H        0.82920    0.58580    0.23840    1.000
    C40      C        0.74170    0.46700    0.23060    1.000
    H55      H        0.66210    0.45980    0.21340    1.000
    H56      H        0.74570    0.41360    0.30580    1.000
    C41      C        0.84130    0.44170    0.15760    1.000
    H57      H        0.83780    0.36530    0.17860    1.000
    H58      H        0.92100    0.45570    0.16950    1.000
    C42      C        0.87780    0.76510    0.54650    1.000
    H59      H        0.80150    0.79940    0.54270    1.000
    C43      C        0.01940    0.64670    0.58910    1.000
    H60      H        0.06020    0.58090    0.62120    1.000
    C44      C        0.07390    0.74090    0.51630    1.000
    H61      H        0.15760    0.75260    0.49000    1.000
    C45      C        0.99800    0.93060    0.40870    1.000
    H62      H        0.05710    0.93700    0.34650    1.000
    H63      H        0.91980    0.95910    0.38290    1.000
    C46      C        0.04150    0.99780    0.45520    1.000
    H64      H        0.05570    0.07100    0.39690    1.000
    H65      H        0.12000    0.96910    0.48020    1.000
    C47      C        0.54000    0.72640    0.61540    1.000
    H66      H        0.55430    0.72770    0.54760    1.000
    C48      C        0.54670    0.68440    0.78170    1.000
    H67      H        0.56730    0.65000    0.85210    1.000
    C49      C        0.46490    0.76600    0.74580    1.000
    H68      H        0.41990    0.79810    0.78530    1.000
    C50      C        0.38680    0.87840    0.56470    1.000
    H69      H        0.38680    0.86930    0.50040    1.000
    H70      H        0.30230    0.87240    0.60040    1.000
    C51      C        0.43550    0.99010    0.53030    1.000
    H71      H        0.43350    0.99920    0.59490    1.000
    H72      H        0.38110    0.04400    0.48420    1.000
    C52      C        0.93490    0.31520    0.84010    1.000
    H73      H        0.91000    0.31290    0.90780    1.000
    C53      C        0.95800    0.36460    0.66880    1.000
    H74      H        0.95140    0.40340    0.59480    1.000
    C54      C        0.02450    0.27320    0.71590    1.000
    H75      H        0.07220    0.23820    0.68050    1.000
    C55      C        0.05990    0.14490    0.90970    1.000
    H76      H        0.13860    0.12690    0.87920    1.000
    H77      H        0.07390    0.15980    0.96790    1.000
    C56      C        0.97350    0.05000    0.95580    1.000
    H78      H        0.89480    0.06800    0.98630    1.000
    H79      H        0.95960    0.03510    0.89770    1.000
    C57      C        0.62370    0.28270    0.87420    1.000
    H80      H        0.68500    0.25480    0.84010    1.000
    C58      C        0.51350    0.38980    0.92080    1.000
    H81      H        0.48450    0.45230    0.92450    1.000
    C59      C        0.46240    0.29170    0.98210    1.000
    H82      H        0.39230    0.27400    0.03420    1.000
    C60      C        0.50840    0.10770    0.99830    1.000
    H83      H        0.47560    0.08000    0.07500    1.000
    H84      H        0.58590    0.07090    0.99370    1.000
    C61      C        0.42450    0.08070    0.94620    1.000
    H85      H        0.35110    0.12520    0.94080    1.000
    H86      H        0.46280    0.09820    0.87250    1.000
    C62      C        0.38640    0.96270    0.00530    1.000
    H87      H        0.32170    0.95240    0.97160    1.000
    H88      H        0.35380    0.94290    0.08080    1.000
