data_functionalizedCrystal
_audit_creation_method	'EQeq! by Chris Wilmer'
_symmetry_space_group_name_H-M	'P1'
_symmetry_Int_Tables_number	1
_symmetry_cell_setting	triclinic
loop_
_symmetry_equiv_pos_as_xyz
  x,y,z
_cell_length_a	16.023
_cell_length_b	16.3833
_cell_length_c	16.3833
_cell_angle_alpha	76.1651
_cell_angle_beta	60.7249
_cell_angle_gamma	60.7248
loop_
_atom_site_label
_atom_site_type_symbol
_atom_site_fract_x
_atom_site_fract_y
_atom_site_fract_z
_atom_site_charge
Mof_Tb	Tb	0.23673	0.87967	0.46665	1.803
Mof_Tb	Tb	0.51185	0.52469	0.11309	1.968
Mof_Tb	Tb	0.08305	0.62033	0.03335	1.782
Mof_Tb	Tb	0.64963	0.97531	0.38691	1.964
Mof_Tb	Tb	0.70338	0.53335	0.37967	1.805
Mof_Tb	Tb	0.62494	0.88691	0.02469	1.959
Mof_Tb	Tb	0.1164	0.96665	0.12033	1.771
Mof_Tb	Tb	0.03654	0.61309	0.47531	1.961
Mof_Tb	Tb	0.76327	0.12033	0.53335	1.804
Mof_Tb	Tb	0.48815	0.47531	0.88691	1.969
Mof_Tb	Tb	0.91695	0.37967	0.96665	1.783
Mof_Tb	Tb	0.35037	0.02469	0.61309	1.965
Mof_Tb	Tb	0.29662	0.46665	0.62033	1.806
Mof_Tb	Tb	0.37506	0.11309	0.97531	1.96
Mof_Tb	Tb	0.8836	0.03335	0.87967	1.772
Mof_Tb	Tb	0.96346	0.38691	0.52469	1.962
Mof_H 	H 	0.3082	0.7528	0.246	-0.055
Mof_H 	H 	0.3618	0.9006	0.219	-0.071
Mof_H 	H 	0.807	0.7472	0.254	-0.055
Mof_H 	H 	0.9814	0.5994	0.281	-0.066
Mof_H 	H 	0.5542	0.754	0.2528	-0.055
Mof_H 	H 	0.5808	0.781	0.4006	-0.071
Mof_H 	H 	0.061	0.746	0.2472	-0.056
Mof_H 	H 	0.2624	0.719	0.0994	-0.071
Mof_H 	H 	0.6918	0.2472	0.754	-0.055
Mof_H 	H 	0.6382	0.0994	0.781	-0.071
Mof_H 	H 	0.193	0.2528	0.746	-0.055
Mof_H 	H 	0.0186	0.4006	0.719	-0.066
Mof_H 	H 	0.4458	0.246	0.7472	-0.055
Mof_H 	H 	0.4192	0.219	0.5994	-0.071
Mof_H 	H 	0.939	0.254	0.7528	-0.056
Mof_H 	H 	0.7376	0.281	0.9006	-0.071
Mof_C 	C 	0.354	0.7165	0.2737	0.154
Mof_C 	C 	0.4256	0.6717	0.3675	-0.102
Mof_C 	C 	0.4853	0.6064	0.2962	-0.074
Mof_C 	C 	0.5795	0.5163	0.2745	0.412
Mof_C 	C 	0.4372	0.6786	0.4476	0.413
Mof_C 	C 	0.3957	0.9154	0.2418	0.166
Mof_C 	C 	0.4369	0.943	0.3358	-0.063
Mof_C 	C 	0.5049	0.9511	0.2467	-0.085
Mof_C 	C 	0.6008	0.9674	0.2038	0.426
Mof_C 	C 	0.4157	0.9533	0.4303	0.373
Mof_C 	C 	0.8442	0.7835	0.2263	0.153
Mof_C 	C 	0.9648	0.8283	0.1325	-0.088
Mof_C 	C 	0.8879	0.8936	0.2038	-0.075
Mof_C 	C 	0.8703	0.9837	0.2255	0.407
Mof_C 	C 	0.0634	0.8214	0.0524	0.388
Mof_C 	C 	0.0529	0.5846	0.2582	0.16
Mof_C 	C 	0.2157	0.557	0.1642	-0.062
Mof_C 	C 	0.2027	0.5489	0.2533	-0.084
Mof_C 	C 	0.272	0.5326	0.2962	0.427
Mof_C 	C 	0.2993	0.5467	0.0697	0.374
Mof_C 	C 	0.6277	0.7263	0.2165	0.154
Mof_C 	C 	0.7931	0.6325	0.1717	-0.102
Mof_C 	C 	0.7815	0.7038	0.1064	-0.071
Mof_C 	C 	0.854	0.7255	0.0163	0.404
Mof_C 	C 	0.8848	0.5524	0.1786	0.412
Mof_C 	C 	0.6375	0.7582	0.4154	0.168
Mof_C 	C 	0.7727	0.6642	0.443	-0.062
Mof_C 	C 	0.7516	0.7533	0.4511	-0.084
Mof_C 	C 	0.8046	0.7962	0.4674	0.427
Mof_C 	C 	0.846	0.5697	0.4533	0.374
Mof_C 	C 	0.0705	0.7737	0.2835	0.152
Mof_C 	C 	0.0973	0.8675	0.3283	-0.098
Mof_C 	C 	0.0917	0.7962	0.3936	-0.076
Mof_C 	C 	0.0958	0.7745	0.4837	0.413
Mof_C 	C 	0.1158	0.9476	0.3214	0.397
Mof_C 	C 	0.3111	0.7418	0.0846	0.166
Mof_C 	C 	0.3799	0.8358	0.057	-0.063
Mof_C 	C 	0.456	0.7467	0.0489	-0.084
Mof_C 	C 	0.5682	0.7038	0.0326	0.426
Mof_C 	C 	0.369	0.9303	0.0467	0.374
Mof_C 	C 	0.646	0.2835	0.7263	0.154
Mof_C 	C 	0.5744	0.3283	0.6325	-0.102
Mof_C 	C 	0.5147	0.3936	0.7038	-0.074
Mof_C 	C 	0.4205	0.4837	0.7255	0.412
Mof_C 	C 	0.5628	0.3214	0.5524	0.413
Mof_C 	C 	0.6043	0.0846	0.7582	0.166
Mof_C 	C 	0.5631	0.057	0.6642	-0.063
Mof_C 	C 	0.4951	0.0489	0.7533	-0.085
Mof_C 	C 	0.3992	0.0326	0.7962	0.426
Mof_C 	C 	0.5843	0.0467	0.5697	0.373
Mof_C 	C 	0.1558	0.2165	0.7737	0.153
Mof_C 	C 	0.0352	0.1717	0.8675	-0.088
Mof_C 	C 	0.1121	0.1064	0.7962	-0.075
Mof_C 	C 	0.1297	0.0163	0.7745	0.407
Mof_C 	C 	0.9366	0.1786	0.9476	0.388
Mof_C 	C 	0.9471	0.4154	0.7418	0.16
Mof_C 	C 	0.7843	0.443	0.8358	-0.062
Mof_C 	C 	0.7973	0.4511	0.7467	-0.084
Mof_C 	C 	0.728	0.4674	0.7038	0.427
Mof_C 	C 	0.7007	0.4533	0.9303	0.374
Mof_C 	C 	0.3723	0.2737	0.7835	0.154
Mof_C 	C 	0.2069	0.3675	0.8283	-0.102
Mof_C 	C 	0.2185	0.2962	0.8936	-0.071
Mof_C 	C 	0.146	0.2745	0.9837	0.404
Mof_C 	C 	0.1152	0.4476	0.8214	0.412
Mof_C 	C 	0.3625	0.2418	0.5846	0.168
Mof_C 	C 	0.2273	0.3358	0.557	-0.062
Mof_C 	C 	0.2484	0.2467	0.5489	-0.084
Mof_C 	C 	0.1954	0.2038	0.5326	0.427
Mof_C 	C 	0.154	0.4303	0.5467	0.374
Mof_C 	C 	0.9295	0.2263	0.7165	0.152
Mof_C 	C 	0.9027	0.1325	0.6717	-0.098
Mof_C 	C 	0.9083	0.2038	0.6064	-0.076
Mof_C 	C 	0.9042	0.2255	0.5163	0.413
Mof_C 	C 	0.8842	0.0524	0.6786	0.397
Mof_C 	C 	0.6889	0.2582	0.9154	0.166
Mof_C 	C 	0.6201	0.1642	0.943	-0.063
Mof_C 	C 	0.544	0.2533	0.9511	-0.084
Mof_C 	C 	0.4318	0.2962	0.9674	0.426
Mof_C 	C 	0.631	0.0697	0.9533	0.374
Mof_N 	N 	0.4379	0.634	0.2372	-0.247
Mof_N 	N 	0.3399	0.7437	0.3527	-0.232
Mof_N 	N 	0.3648	0.9205	0.3315	-0.273
Mof_N 	N 	0.4797	0.9328	0.1854	-0.265
Mof_N 	N 	0.8091	0.866	0.2628	-0.247
Mof_N 	N 	0.9363	0.7563	0.1473	-0.232
Mof_N 	N 	0.1168	0.5795	0.1685	-0.27
Mof_N 	N 	0.0979	0.5672	0.3146	-0.263
Mof_N 	N 	0.6751	0.7628	0.134	-0.247
Mof_N 	N 	0.6926	0.6473	0.2437	-0.232
Mof_N 	N 	0.6963	0.6685	0.4205	-0.273
Mof_N 	N 	0.6651	0.8146	0.4328	-0.264
Mof_N 	N 	0.0719	0.7372	0.366	-0.247
Mof_N 	N 	0.0836	0.8527	0.2563	-0.233
Mof_N 	N 	0.2853	0.8315	0.0795	-0.271
Mof_N 	N 	0.4125	0.6854	0.0672	-0.265
Mof_N 	N 	0.5621	0.366	0.7628	-0.247
Mof_N 	N 	0.6601	0.2563	0.6473	-0.232
Mof_N 	N 	0.6352	0.0795	0.6685	-0.273
Mof_N 	N 	0.5203	0.0672	0.8146	-0.265
Mof_N 	N 	0.1909	0.134	0.7372	-0.247
Mof_N 	N 	0.0637	0.2437	0.8527	-0.232
Mof_N 	N 	0.8832	0.4205	0.8315	-0.27
Mof_N 	N 	0.9021	0.4328	0.6854	-0.263
Mof_N 	N 	0.3249	0.2372	0.866	-0.247
Mof_N 	N 	0.3074	0.3527	0.7563	-0.232
Mof_N 	N 	0.3037	0.3315	0.5795	-0.273
Mof_N 	N 	0.3349	0.1854	0.5672	-0.264
Mof_N 	N 	0.9281	0.2628	0.634	-0.247
Mof_N 	N 	0.9164	0.1473	0.7437	-0.233
Mof_N 	N 	0.7147	0.1685	0.9205	-0.271
Mof_N 	N 	0.5875	0.3146	0.9328	-0.265
Mof_O 	O 	0.6043	0.4702	0.2072	-0.507
Mof_O 	O 	0.6331	0.4822	0.3196	-0.53
Mof_O 	O 	0.5205	0.6283	0.4551	-0.529
Mof_O 	O 	0.357	0.7427	0.5081	-0.503
Mof_O 	O 	0.6552	0.957	0.1176	-0.494
Mof_O 	O 	0.6202	0.9935	0.2561	-0.533
Mof_O 	O 	0.4673	0.9868	0.4452	-0.609
Mof_O 	O 	0.349	0.9326	0.498	-0.541
Mof_O 	O 	0.7817	0.0298	0.2928	-0.504
Mof_O 	O 	0.9349	0.0178	0.1804	-0.519
Mof_O 	O 	0.1039	0.8717	0.0449	-0.524
Mof_O 	O 	0.1078	0.7573	0.9919	-0.485
Mof_O 	O 	0.2298	0.543	0.3824	-0.494
Mof_O 	O 	0.3698	0.5065	0.2439	-0.532
Mof_O 	O 	0.3993	0.5132	0.0548	-0.608
Mof_O 	O 	0.2796	0.5674	0.002	-0.541
Mof_O 	O 	0.8115	0.7928	0.9702	-0.498
Mof_O 	O 	0.9527	0.6804	0.9822	-0.523
Mof_O 	O 	0.9756	0.5449	0.1283	-0.524
Mof_O 	O 	0.8651	0.4919	0.2427	-0.503
Mof_O 	O 	0.7728	0.8824	0.457	-0.493
Mof_O 	O 	0.8763	0.7439	0.4935	-0.53
Mof_O 	O 	0.9125	0.5548	0.4868	-0.608
Mof_O 	O 	0.847	0.502	0.4326	-0.541
Mof_O 	O 	0.0745	0.7072	0.5298	-0.508
Mof_O 	O 	0.1153	0.8196	0.5178	-0.531
Mof_O 	O 	0.1488	0.9551	0.3717	-0.527
Mof_O 	O 	0.0997	0.0081	0.2573	-0.484
Mof_O 	O 	0.6122	0.6176	0.043	-0.493
Mof_O 	O 	0.6137	0.7561	0.0065	-0.532
Mof_O 	O 	0.4541	0.9452	0.0132	-0.61
Mof_O 	O 	0.2816	0.998	0.0674	-0.545
Mof_O 	O 	0.3957	0.5298	0.7928	-0.507
Mof_O 	O 	0.3669	0.5178	0.6804	-0.53
Mof_O 	O 	0.4795	0.3717	0.5449	-0.529
Mof_O 	O 	0.643	0.2573	0.4919	-0.503
Mof_O 	O 	0.3448	0.043	0.8824	-0.494
Mof_O 	O 	0.3798	0.0065	0.7439	-0.533
Mof_O 	O 	0.5327	0.0132	0.5548	-0.609
Mof_O 	O 	0.651	0.0674	0.502	-0.541
Mof_O 	O 	0.2183	0.9702	0.7072	-0.504
Mof_O 	O 	0.0651	0.9822	0.8196	-0.519
Mof_O 	O 	0.8961	0.1283	0.9551	-0.524
Mof_O 	O 	0.8922	0.2427	0.0081	-0.485
Mof_O 	O 	0.7702	0.457	0.6176	-0.494
Mof_O 	O 	0.6302	0.4935	0.7561	-0.532
Mof_O 	O 	0.6007	0.4868	0.9452	-0.608
Mof_O 	O 	0.7204	0.4326	0.998	-0.541
Mof_O 	O 	0.1885	0.2072	0.0298	-0.498
Mof_O 	O 	0.0473	0.3196	0.0178	-0.523
Mof_O 	O 	0.0244	0.4551	0.8717	-0.524
Mof_O 	O 	0.1349	0.5081	0.7573	-0.503
Mof_O 	O 	0.2272	0.1176	0.543	-0.493
Mof_O 	O 	0.1237	0.2561	0.5065	-0.53
Mof_O 	O 	0.0875	0.4452	0.5132	-0.608
Mof_O 	O 	0.153	0.498	0.5674	-0.541
Mof_O 	O 	0.9255	0.2928	0.4702	-0.508
Mof_O 	O 	0.8847	0.1804	0.4822	-0.531
Mof_O 	O 	0.8512	0.0449	0.6283	-0.527
Mof_O 	O 	0.9003	0.9919	0.7427	-0.484
Mof_O 	O 	0.3878	0.3824	0.957	-0.493
Mof_O 	O 	0.3863	0.2439	0.9935	-0.532
Mof_O 	O 	0.5459	0.0548	0.9868	-0.61
Mof_O 	O 	0.7184	0.002	0.9326	-0.545
_end
