# CIF file generated by openbabel 3.1.0, see https://openbabel.org
data_I
_chemical_name_common 'NUGRIR_clean'
_cell_length_a 26.0643
_cell_length_b 26.0643
_cell_length_c 26.0643
_cell_angle_alpha 109.471
_cell_angle_beta 109.471
_cell_angle_gamma 109.471
_space_group_name_H-M_alt 'P 1'
_space_group_name_Hall 'P 1'
loop_
    _symmetry_equiv_pos_as_xyz
    x,y,z
loop_
    _atom_site_label
    _atom_site_type_symbol
    _atom_site_fract_x
    _atom_site_fract_y
    _atom_site_fract_z
    _atom_site_occupancy
    Cu1      Cu       0.44018    0.67589    0.87661    1.000
    Cu2      Cu       0.29928    0.56357    0.62339    1.000
    Cu3      Cu       0.20072    0.82411    0.26429    1.000
    Cu4      Cu       0.05982    0.93643    0.23571    1.000
    Cu5      Cu       0.76429    0.20072    0.32411    1.000
    Cu6      Cu       0.73571    0.05982    0.43643    1.000
    Cu7      Cu       0.37661    0.44018    0.17589    1.000
    Cu8      Cu       0.12339    0.29928    0.06357    1.000
    Cu9      Cu       0.56357    0.12339    0.79928    1.000
    Cu10     Cu       0.67589    0.37661    0.94018    1.000
    Cu11     Cu       0.93643    0.73571    0.55982    1.000
    Cu12     Cu       0.82411    0.76429    0.70072    1.000
    Cu13     Cu       0.06357    0.79928    0.12339    1.000
    Cu14     Cu       0.17589    0.94018    0.37661    1.000
    Cu15     Cu       0.43643    0.55982    0.73571    1.000
    Cu16     Cu       0.32411    0.70072    0.76429    1.000
    Cu17     Cu       0.94018    0.87661    0.67589    1.000
    Cu18     Cu       0.79928    0.62339    0.56357    1.000
    Cu19     Cu       0.70072    0.26429    0.82411    1.000
    Cu20     Cu       0.55982    0.23571    0.93643    1.000
    Cu21     Cu       0.26429    0.32411    0.20072    1.000
    Cu22     Cu       0.23571    0.43643    0.05982    1.000
    Cu23     Cu       0.87661    0.17589    0.44018    1.000
    Cu24     Cu       0.62339    0.06357    0.29928    1.000
    Cu25     Cu       0.46371    0.71371    0.75000    1.000
    Cu26     Cu       0.03629    0.78629    0.25000    1.000
    Cu27     Cu       0.75000    0.03629    0.28629    1.000
    Cu28     Cu       0.25000    0.46371    0.21371    1.000
    Cu29     Cu       0.71371    0.25000    0.96371    1.000
    Cu30     Cu       0.78629    0.75000    0.53629    1.000
    Cu31     Cu       0.21371    0.96371    0.25000    1.000
    Cu32     Cu       0.28629    0.53629    0.75000    1.000
    Cu33     Cu       0.96371    0.75000    0.71371    1.000
    Cu34     Cu       0.53629    0.25000    0.78629    1.000
    Cu35     Cu       0.25000    0.28629    0.03629    1.000
    Cu36     Cu       0.75000    0.21371    0.46371    1.000
    H1       H        0.48570    0.57770    0.90300    1.000
    H2       H        0.38270    0.63870    0.95540    1.000
    H3       H        0.39590    0.57160    0.00070    1.000
    H4       H        0.54700    0.83000    0.89360    1.000
    H5       H        0.50750    0.83710    0.73980    1.000
    H6       H        0.56770    0.94520    0.82630    1.000
    H7       H        0.17470    0.58270    0.59700    1.000
    H8       H        0.18330    0.42730    0.54460    1.000
    H9       H        0.07090    0.39520    0.49930    1.000
    H10      H        0.43640    0.65340    0.60640    1.000
    H11      H        0.59730    0.76770    0.76020    1.000
    H12      H        0.61890    0.74140    0.67370    1.000
    H13      H        0.32530    0.92230    0.40800    1.000
    H14      H        0.31670    0.86130    0.24400    1.000
    H15      H        0.42910    0.92840    0.32430    1.000
    H16      H        0.06360    0.67000    0.21700    1.000
    H17      H        0.90270    0.66290    0.17040    1.000
    H18      H        0.88110    0.55480    0.12250    1.000
    H19      H        0.01430    0.91730    0.09200    1.000
    H20      H        0.11730    0.07270    0.25600    1.000
    H21      H        0.10410    0.10480    0.17570    1.000
    H22      H        0.95300    0.84660    0.28300    1.000
    H23      H        0.99250    0.73230    0.32960    1.000
    H24      H        0.93230    0.75860    0.37750    1.000
    H25      H        0.90800    0.32530    0.42230    1.000
    H26      H        0.74400    0.31670    0.36130    1.000
    H27      H        0.82430    0.42910    0.42840    1.000
    H28      H        0.71700    0.06360    0.17000    1.000
    H29      H        0.67040    0.90270    0.16290    1.000
    H30      H        0.62250    0.88110    0.05480    1.000
    H31      H        0.59200    0.01430    0.41730    1.000
    H32      H        0.75600    0.11730    0.57270    1.000
    H33      H        0.67570    0.10410    0.60480    1.000
    H34      H        0.78300    0.95300    0.34660    1.000
    H35      H        0.82960    0.99250    0.23230    1.000
    H36      H        0.87750    0.93230    0.25860    1.000
    H37      H        0.40300    0.48570    0.07770    1.000
    H38      H        0.45540    0.38270    0.13870    1.000
    H39      H        0.50070    0.39590    0.07160    1.000
    H40      H        0.39360    0.54700    0.33000    1.000
    H41      H        0.23980    0.50750    0.33710    1.000
    H42      H        0.32630    0.56770    0.44520    1.000
    H43      H        0.09700    0.17470    0.08270    1.000
    H44      H        0.04460    0.18330    0.92730    1.000
    H45      H        0.99930    0.07090    0.89520    1.000
    H46      H        0.10640    0.43640    0.15340    1.000
    H47      H        0.26020    0.59730    0.26770    1.000
    H48      H        0.17370    0.61890    0.24140    1.000
    H49      H        0.58270    0.09700    0.67470    1.000
    H50      H        0.42730    0.04460    0.68330    1.000
    H51      H        0.39520    0.99930    0.57090    1.000
    H52      H        0.65340    0.10640    0.93640    1.000
    H53      H        0.76770    0.26020    0.09730    1.000
    H54      H        0.74140    0.17370    0.11890    1.000
    H55      H        0.57770    0.40300    0.98570    1.000
    H56      H        0.63870    0.45540    0.88270    1.000
    H57      H        0.57160    0.50070    0.89590    1.000
    H58      H        0.83000    0.39360    0.04700    1.000
    H59      H        0.83710    0.23980    0.00750    1.000
    H60      H        0.94520    0.32630    0.06770    1.000
    H61      H        0.91730    0.59200    0.51430    1.000
    H62      H        0.07270    0.75600    0.61730    1.000
    H63      H        0.10480    0.67570    0.60410    1.000
    H64      H        0.84660    0.78300    0.45300    1.000
    H65      H        0.73230    0.82960    0.49250    1.000
    H66      H        0.75860    0.87750    0.43230    1.000
    H67      H        0.92230    0.90800    0.82530    1.000
    H68      H        0.86130    0.74400    0.81670    1.000
    H69      H        0.92840    0.82430    0.92910    1.000
    H70      H        0.67000    0.71700    0.56360    1.000
    H71      H        0.66290    0.67040    0.40270    1.000
    H72      H        0.55480    0.62250    0.38110    1.000
    H73      H        0.08270    0.67470    0.09700    1.000
    H74      H        0.92730    0.68330    0.04460    1.000
    H75      H        0.89520    0.57090    0.99930    1.000
    H76      H        0.15340    0.93640    0.10640    1.000
    H77      H        0.26770    0.09730    0.26020    1.000
    H78      H        0.24140    0.11890    0.17370    1.000
    H79      H        0.07770    0.98570    0.40300    1.000
    H80      H        0.13870    0.88270    0.45540    1.000
    H81      H        0.07160    0.89590    0.50070    1.000
    H82      H        0.33000    0.04700    0.39360    1.000
    H83      H        0.33710    0.00750    0.23980    1.000
    H84      H        0.44520    0.06770    0.32630    1.000
    H85      H        0.41730    0.51430    0.59200    1.000
    H86      H        0.57270    0.61730    0.75600    1.000
    H87      H        0.60480    0.60410    0.67570    1.000
    H88      H        0.34660    0.45300    0.78300    1.000
    H89      H        0.23230    0.49250    0.82960    1.000
    H90      H        0.25860    0.43230    0.87750    1.000
    H91      H        0.42230    0.82530    0.90800    1.000
    H92      H        0.36130    0.81670    0.74400    1.000
    H93      H        0.42840    0.92910    0.82430    1.000
    H94      H        0.17000    0.56360    0.71700    1.000
    H95      H        0.16290    0.40270    0.67040    1.000
    H96      H        0.05480    0.38110    0.62250    1.000
    H97      H        0.98570    0.90300    0.57770    1.000
    H98      H        0.88270    0.95540    0.63870    1.000
    H99      H        0.89590    0.00070    0.57160    1.000
    H100     H        0.04700    0.89360    0.83000    1.000
    H101     H        0.00750    0.73980    0.83710    1.000
    H102     H        0.06770    0.82630    0.94520    1.000
    H103     H        0.67470    0.59700    0.58270    1.000
    H104     H        0.68330    0.54460    0.42730    1.000
    H105     H        0.57090    0.49930    0.39520    1.000
    H106     H        0.93640    0.60640    0.65340    1.000
    H107     H        0.09730    0.76020    0.76770    1.000
    H108     H        0.11890    0.67370    0.74140    1.000
    H109     H        0.82530    0.40800    0.92230    1.000
    H110     H        0.81670    0.24400    0.86130    1.000
    H111     H        0.92910    0.32430    0.92840    1.000
    H112     H        0.56360    0.21700    0.67000    1.000
    H113     H        0.40270    0.17040    0.66290    1.000
    H114     H        0.38110    0.12250    0.55480    1.000
    H115     H        0.51430    0.09200    0.91730    1.000
    H116     H        0.61730    0.25600    0.07270    1.000
    H117     H        0.60410    0.17570    0.10480    1.000
    H118     H        0.45300    0.28300    0.84660    1.000
    H119     H        0.49250    0.32960    0.73230    1.000
    H120     H        0.43230    0.37750    0.75860    1.000
    H121     H        0.40800    0.42230    0.32530    1.000
    H122     H        0.24400    0.36130    0.31670    1.000
    H123     H        0.32430    0.42840    0.42910    1.000
    H124     H        0.21700    0.17000    0.06360    1.000
    H125     H        0.17040    0.16290    0.90270    1.000
    H126     H        0.12250    0.05480    0.88110    1.000
    H127     H        0.09200    0.41730    0.01430    1.000
    H128     H        0.25600    0.57270    0.11730    1.000
    H129     H        0.17570    0.60480    0.10410    1.000
    H130     H        0.28300    0.34660    0.95300    1.000
    H131     H        0.32960    0.23230    0.99250    1.000
    H132     H        0.37750    0.25860    0.93230    1.000
    H133     H        0.90300    0.07770    0.48570    1.000
    H134     H        0.95540    0.13870    0.38270    1.000
    H135     H        0.00070    0.07160    0.39590    1.000
    H136     H        0.89360    0.33000    0.54700    1.000
    H137     H        0.73980    0.33710    0.50750    1.000
    H138     H        0.82630    0.44520    0.56770    1.000
    H139     H        0.59700    0.08270    0.17470    1.000
    H140     H        0.54460    0.92730    0.18330    1.000
    H141     H        0.49930    0.89520    0.07090    1.000
    H142     H        0.60640    0.15340    0.43640    1.000
    H143     H        0.76020    0.26770    0.59730    1.000
    H144     H        0.67370    0.24140    0.61890    1.000
    W1       W        0.37500    0.62500    0.75000    1.000
    W2       W        0.12500    0.87500    0.25000    1.000
    W3       W        0.75000    0.12500    0.37500    1.000
    W4       W        0.25000    0.37500    0.12500    1.000
    W5       W        0.62500    0.25000    0.87500    1.000
    W6       W        0.87500    0.75000    0.62500    1.000
    C1       C        0.46360    0.58660    0.92280    1.000
    C2       C        0.40600    0.61890    0.95110    1.000
    C3       C        0.41340    0.58260    0.97760    1.000
    C4       C        0.47500    0.52910    0.97670    1.000
    C5       C        0.54390    0.84540    0.86590    1.000
    C6       C        0.52200    0.84960    0.78220    1.000
    C7       C        0.55620    0.90870    0.82890    1.000
    C8       C        0.60750    0.95330    0.94460    1.000
    C9       C        0.16380    0.54080    0.57720    1.000
    C10      C        0.16780    0.45490    0.54890    1.000
    C11      C        0.10500    0.43580    0.52240    1.000
    C12      C        0.05240    0.49830    0.52330    1.000
    C13      C        0.47950    0.67800    0.63410    1.000
    C14      C        0.56740    0.73980    0.71780    1.000
    C15      C        0.57980    0.72730    0.67110    1.000
    C16      C        0.50870    0.66290    0.55540    1.000
    C17      C        0.33620    0.91340    0.37700    1.000
    C18      C        0.33220    0.88110    0.28710    1.000
    C19      C        0.39500    0.91740    0.33080    1.000
    C20      C        0.44760    0.97090    0.44590    1.000
    C21      C        0.02050    0.65460    0.19850    1.000
    C22      C        0.93260    0.65040    0.17240    1.000
    C23      C        0.92020    0.59130    0.14750    1.000
    C24      C        0.99130    0.54670    0.15420    1.000
    C25      C        0.03640    0.95920    0.12300    1.000
    C26      C        0.09400    0.04510    0.21290    1.000
    C27      C        0.08660    0.06420    0.16920    1.000
    C28      C        0.02500    0.00170    0.05410    1.000
    C29      C        0.95610    0.82200    0.30150    1.000
    C30      C        0.97800    0.76020    0.32760    1.000
    C31      C        0.94380    0.77270    0.35250    1.000
    C32      C        0.89250    0.83710    0.34580    1.000
    C33      C        0.87700    0.33620    0.41340    1.000
    C34      C        0.78710    0.33220    0.38110    1.000
    C35      C        0.83080    0.39500    0.41740    1.000
    C36      C        0.94590    0.44760    0.47090    1.000
    C37      C        0.69850    0.02050    0.15460    1.000
    C38      C        0.67240    0.93260    0.15040    1.000
    C39      C        0.64750    0.92020    0.09130    1.000
    C40      C        0.65420    0.99130    0.04670    1.000
    C41      C        0.62300    0.03640    0.45920    1.000
    C42      C        0.71290    0.09400    0.54510    1.000
    C43      C        0.66920    0.08660    0.56420    1.000
    C44      C        0.55410    0.02500    0.50170    1.000
    C45      C        0.80150    0.95610    0.32200    1.000
    C46      C        0.82760    0.97800    0.26020    1.000
    C47      C        0.85250    0.94380    0.27270    1.000
    C48      C        0.84580    0.89250    0.33710    1.000
    C49      C        0.42280    0.46360    0.08660    1.000
    C50      C        0.45110    0.40600    0.11890    1.000
    C51      C        0.47760    0.41340    0.08260    1.000
    C52      C        0.47670    0.47500    0.02910    1.000
    C53      C        0.36590    0.54390    0.34540    1.000
    C54      C        0.28220    0.52200    0.34960    1.000
    C55      C        0.32890    0.55620    0.40870    1.000
    C56      C        0.44460    0.60750    0.45330    1.000
    C57      C        0.07720    0.16380    0.04080    1.000
    C58      C        0.04890    0.16780    0.95490    1.000
    C59      C        0.02240    0.10500    0.93580    1.000
    C60      C        0.02330    0.05240    0.99830    1.000
    C61      C        0.13410    0.47950    0.17800    1.000
    C62      C        0.21780    0.56740    0.23980    1.000
    C63      C        0.17110    0.57980    0.22730    1.000
    C64      C        0.05540    0.50870    0.16290    1.000
    C65      C        0.54080    0.07720    0.66380    1.000
    C66      C        0.45490    0.04890    0.66780    1.000
    C67      C        0.43580    0.02240    0.60500    1.000
    C68      C        0.49830    0.02330    0.55240    1.000
    C69      C        0.67800    0.13410    0.97950    1.000
    C70      C        0.73980    0.21780    0.06740    1.000
    C71      C        0.72730    0.17110    0.07980    1.000
    C72      C        0.66290    0.05540    0.00870    1.000
    C73      C        0.58660    0.42280    0.96360    1.000
    C74      C        0.61890    0.45110    0.90600    1.000
    C75      C        0.58260    0.47760    0.91340    1.000
    C76      C        0.52910    0.47670    0.97500    1.000
    C77      C        0.84540    0.36590    0.04390    1.000
    C78      C        0.84960    0.28220    0.02200    1.000
    C79      C        0.90870    0.32890    0.05620    1.000
    C80      C        0.95330    0.44460    0.10750    1.000
    C81      C        0.95920    0.62300    0.53640    1.000
    C82      C        0.04510    0.71290    0.59400    1.000
    C83      C        0.06420    0.66920    0.58660    1.000
    C84      C        0.00170    0.55410    0.52500    1.000
    C85      C        0.82200    0.80150    0.45610    1.000
    C86      C        0.76020    0.82760    0.47800    1.000
    C87      C        0.77270    0.85250    0.44380    1.000
    C88      C        0.83710    0.84580    0.39250    1.000
    C89      C        0.91340    0.87700    0.83620    1.000
    C90      C        0.88110    0.78710    0.83220    1.000
    C91      C        0.91740    0.83080    0.89500    1.000
    C92      C        0.97090    0.94590    0.94760    1.000
    C93      C        0.65460    0.69850    0.52050    1.000
    C94      C        0.65040    0.67240    0.43260    1.000
    C95      C        0.59130    0.64750    0.42020    1.000
    C96      C        0.54670    0.65420    0.49130    1.000
    C97      C        0.04080    0.66380    0.07720    1.000
    C98      C        0.95490    0.66780    0.04890    1.000
    C99      C        0.93580    0.60500    0.02240    1.000
    C100     C        0.99830    0.55240    0.02330    1.000
    C101     C        0.17800    0.97950    0.13410    1.000
    C102     C        0.23980    0.06740    0.21780    1.000
    C103     C        0.22730    0.07980    0.17110    1.000
    C104     C        0.16290    0.00870    0.05540    1.000
    C105     C        0.08660    0.96360    0.42280    1.000
    C106     C        0.11890    0.90600    0.45110    1.000
    C107     C        0.08260    0.91340    0.47760    1.000
    C108     C        0.02910    0.97500    0.47670    1.000
    C109     C        0.34540    0.04390    0.36590    1.000
    C110     C        0.34960    0.02200    0.28220    1.000
    C111     C        0.40870    0.05620    0.32890    1.000
    C112     C        0.45330    0.10750    0.44460    1.000
    C113     C        0.45920    0.53640    0.62300    1.000
    C114     C        0.54510    0.59400    0.71290    1.000
    C115     C        0.56420    0.58660    0.66920    1.000
    C116     C        0.50170    0.52500    0.55410    1.000
    C117     C        0.32200    0.45610    0.80150    1.000
    C118     C        0.26020    0.47800    0.82760    1.000
    C119     C        0.27270    0.44380    0.85250    1.000
    C120     C        0.33710    0.39250    0.84580    1.000
    C121     C        0.41340    0.83620    0.87700    1.000
    C122     C        0.38110    0.83220    0.78710    1.000
    C123     C        0.41740    0.89500    0.83080    1.000
    C124     C        0.47090    0.94760    0.94590    1.000
    C125     C        0.15460    0.52050    0.69850    1.000
    C126     C        0.15040    0.43260    0.67240    1.000
    C127     C        0.09130    0.42020    0.64750    1.000
    C128     C        0.04670    0.49130    0.65420    1.000
    C129     C        0.96360    0.92280    0.58660    1.000
    C130     C        0.90600    0.95110    0.61890    1.000
    C131     C        0.91340    0.97760    0.58260    1.000
    C132     C        0.97500    0.97670    0.52910    1.000
    C133     C        0.04390    0.86590    0.84540    1.000
    C134     C        0.02200    0.78220    0.84960    1.000
    C135     C        0.05620    0.82890    0.90870    1.000
    C136     C        0.10750    0.94460    0.95330    1.000
    C137     C        0.66380    0.57720    0.54080    1.000
    C138     C        0.66780    0.54890    0.45490    1.000
    C139     C        0.60500    0.52240    0.43580    1.000
    C140     C        0.55240    0.52330    0.49830    1.000
    C141     C        0.97950    0.63410    0.67800    1.000
    C142     C        0.06740    0.71780    0.73980    1.000
    C143     C        0.07980    0.67110    0.72730    1.000
    C144     C        0.00870    0.55540    0.66290    1.000
    C145     C        0.83620    0.37700    0.91340    1.000
    C146     C        0.83220    0.28710    0.88110    1.000
    C147     C        0.89500    0.33080    0.91740    1.000
    C148     C        0.94760    0.44590    0.97090    1.000
    C149     C        0.52050    0.19850    0.65460    1.000
    C150     C        0.43260    0.17240    0.65040    1.000
    C151     C        0.42020    0.14750    0.59130    1.000
    C152     C        0.49130    0.15420    0.54670    1.000
    C153     C        0.53640    0.12300    0.95920    1.000
    C154     C        0.59400    0.21290    0.04510    1.000
    C155     C        0.58660    0.16920    0.06420    1.000
    C156     C        0.52500    0.05410    0.00170    1.000
    C157     C        0.45610    0.30150    0.82200    1.000
    C158     C        0.47800    0.32760    0.76020    1.000
    C159     C        0.44380    0.35250    0.77270    1.000
    C160     C        0.39250    0.34580    0.83710    1.000
    C161     C        0.37700    0.41340    0.33620    1.000
    C162     C        0.28710    0.38110    0.33220    1.000
    C163     C        0.33080    0.41740    0.39500    1.000
    C164     C        0.44590    0.47090    0.44760    1.000
    C165     C        0.19850    0.15460    0.02050    1.000
    C166     C        0.17240    0.15040    0.93260    1.000
    C167     C        0.14750    0.09130    0.92020    1.000
    C168     C        0.15420    0.04670    0.99130    1.000
    C169     C        0.12300    0.45920    0.03640    1.000
    C170     C        0.21290    0.54510    0.09400    1.000
    C171     C        0.16920    0.56420    0.08660    1.000
    C172     C        0.05410    0.50170    0.02500    1.000
    C173     C        0.30150    0.32200    0.95610    1.000
    C174     C        0.32760    0.26020    0.97800    1.000
    C175     C        0.35250    0.27270    0.94380    1.000
    C176     C        0.34580    0.33710    0.89250    1.000
    C177     C        0.92280    0.08660    0.46360    1.000
    C178     C        0.95110    0.11890    0.40600    1.000
    C179     C        0.97760    0.08260    0.41340    1.000
    C180     C        0.97670    0.02910    0.47500    1.000
    C181     C        0.86590    0.34540    0.54390    1.000
    C182     C        0.78220    0.34960    0.52200    1.000
    C183     C        0.82890    0.40870    0.55620    1.000
    C184     C        0.94460    0.45330    0.60750    1.000
    C185     C        0.57720    0.04080    0.16380    1.000
    C186     C        0.54890    0.95490    0.16780    1.000
    C187     C        0.52240    0.93580    0.10500    1.000
    C188     C        0.52330    0.99830    0.05240    1.000
    C189     C        0.63410    0.17800    0.47950    1.000
    C190     C        0.71780    0.23980    0.56740    1.000
    C191     C        0.67110    0.22730    0.57980    1.000
    C192     C        0.55540    0.16290    0.50870    1.000
    S1       S        0.47961    0.66484    0.80913    1.000
    S2       S        0.35571    0.67048    0.69087    1.000
    S3       S        0.14429    0.83516    0.31477    1.000
    S4       S        0.02039    0.82952    0.18523    1.000
    S5       S        0.81477    0.14429    0.33516    1.000
    S6       S        0.68523    0.02039    0.32952    1.000
    S7       S        0.30913    0.47961    0.16484    1.000
    S8       S        0.19087    0.35571    0.17048    1.000
    S9       S        0.67048    0.19087    0.85571    1.000
    S10      S        0.66484    0.30913    0.97961    1.000
    S11      S        0.82952    0.68523    0.52039    1.000
    S12      S        0.83516    0.81477    0.64429    1.000
    S13      S        0.17048    0.85571    0.19087    1.000
    S14      S        0.16484    0.97961    0.30913    1.000
    S15      S        0.32952    0.52039    0.68523    1.000
    S16      S        0.33516    0.64429    0.81477    1.000
    S17      S        0.97961    0.80913    0.66484    1.000
    S18      S        0.85571    0.69087    0.67048    1.000
    S19      S        0.64429    0.31477    0.83516    1.000
    S20      S        0.52039    0.18523    0.82952    1.000
    S21      S        0.31477    0.33516    0.14429    1.000
    S22      S        0.18523    0.32952    0.02039    1.000
    S23      S        0.80913    0.16484    0.47961    1.000
    S24      S        0.69087    0.17048    0.35571    1.000
    Br1      Br       0.49430    0.78187    0.96383    1.000
    Br2      Br       0.31804    0.53047    0.53617    1.000
    Br3      Br       0.18196    0.71813    0.21243    1.000
    Br4      Br       0.00570    0.96953    0.28757    1.000
    Br5      Br       0.71243    0.18196    0.21813    1.000
    Br6      Br       0.78757    0.00570    0.46953    1.000
    Br7      Br       0.46383    0.49430    0.28187    1.000
    Br8      Br       0.03617    0.31804    0.03047    1.000
    Br9      Br       0.53047    0.03617    0.81804    1.000
    Br10     Br       0.78187    0.46383    0.99430    1.000
    Br11     Br       0.96953    0.78757    0.50570    1.000
    Br12     Br       0.71813    0.71243    0.68196    1.000
    Br13     Br       0.03047    0.81804    0.03617    1.000
    Br14     Br       0.28187    0.99430    0.46383    1.000
    Br15     Br       0.46953    0.50570    0.78757    1.000
    Br16     Br       0.21813    0.68196    0.71243    1.000
    Br17     Br       0.99430    0.96383    0.78187    1.000
    Br18     Br       0.81804    0.53617    0.53047    1.000
    Br19     Br       0.68196    0.21243    0.71813    1.000
    Br20     Br       0.50570    0.28757    0.96953    1.000
    Br21     Br       0.21243    0.21813    0.18196    1.000
    Br22     Br       0.28757    0.46953    0.00570    1.000
    Br23     Br       0.96383    0.28187    0.49430    1.000
    Br24     Br       0.53617    0.03047    0.31804    1.000
    N1       N        0.43630    0.62280    0.91770    1.000
    N2       N        0.45280    0.56620    0.96120    1.000
    N3       N        0.50990    0.51460    0.95570    1.000
    N4       N        0.51150    0.81060    0.80530    1.000
    N5       N        0.57100    0.90370    0.88290    1.000
    N6       N        0.61330    0.93880    0.98670    1.000
    N7       N        0.20510    0.51860    0.58230    1.000
    N8       N        0.10500    0.49160    0.53880    1.000
    N9       N        0.05890    0.55420    0.54430    1.000
    N10      N        0.50530    0.70620    0.69470    1.000
    N11      N        0.52080    0.68810    0.61710    1.000
    N12      N        0.45210    0.62660    0.51330    1.000
    N13      N        0.29490    0.87720    0.31350    1.000
    N14      N        0.39500    0.93380    0.38660    1.000
    N15      N        0.44110    0.98540    0.49530    1.000
    N16      N        0.99470    0.68940    0.20090    1.000
    N17      N        0.97920    0.59630    0.16730    1.000
    N18      N        0.04790    0.56120    0.17450    1.000
    N19      N        0.06370    0.98140    0.18650    1.000
    N20      N        0.04720    0.00840    0.11340    1.000
    N21      N        0.99010    0.94580    0.00470    1.000
    N22      N        0.98850    0.79380    0.29910    1.000
    N23      N        0.92900    0.81190    0.33270    1.000
    N24      N        0.88670    0.87340    0.32550    1.000
    N25      N        0.81350    0.29490    0.37720    1.000
    N26      N        0.88660    0.39500    0.43380    1.000
    N27      N        0.99530    0.44110    0.48540    1.000
    N28      N        0.70090    0.99470    0.18940    1.000
    N29      N        0.66730    0.97920    0.09630    1.000
    N30      N        0.67450    0.04790    0.06120    1.000
    N31      N        0.68650    0.06370    0.48140    1.000
    N32      N        0.61340    0.04720    0.50840    1.000
    N33      N        0.50470    0.99010    0.44580    1.000
    N34      N        0.79910    0.98850    0.29380    1.000
    N35      N        0.83270    0.92900    0.31190    1.000
    N36      N        0.82550    0.88670    0.37340    1.000
    N37      N        0.41770    0.43630    0.12280    1.000
    N38      N        0.46120    0.45280    0.06620    1.000
    N39      N        0.45570    0.50990    0.01460    1.000
    N40      N        0.30530    0.51150    0.31060    1.000
    N41      N        0.38290    0.57100    0.40370    1.000
    N42      N        0.48670    0.61330    0.43880    1.000
    N43      N        0.08230    0.20510    0.01860    1.000
    N44      N        0.03880    0.10500    0.99160    1.000
    N45      N        0.04430    0.05890    0.05420    1.000
    N46      N        0.19470    0.50530    0.20620    1.000
    N47      N        0.11710    0.52080    0.18810    1.000
    N48      N        0.01330    0.45210    0.12660    1.000
    N49      N        0.51860    0.08230    0.70510    1.000
    N50      N        0.49160    0.03880    0.60500    1.000
    N51      N        0.55420    0.04430    0.55890    1.000
    N52      N        0.70620    0.19470    0.00530    1.000
    N53      N        0.68810    0.11710    0.02080    1.000
    N54      N        0.62660    0.01330    0.95210    1.000
    N55      N        0.62280    0.41770    0.93630    1.000
    N56      N        0.56620    0.46120    0.95280    1.000
    N57      N        0.51460    0.45570    0.00990    1.000
    N58      N        0.81060    0.30530    0.01150    1.000
    N59      N        0.90370    0.38290    0.07100    1.000
    N60      N        0.93880    0.48670    0.11330    1.000
    N61      N        0.98140    0.68650    0.56370    1.000
    N62      N        0.00840    0.61340    0.54720    1.000
    N63      N        0.94580    0.50470    0.49010    1.000
    N64      N        0.79380    0.79910    0.48850    1.000
    N65      N        0.81190    0.83270    0.42900    1.000
    N66      N        0.87340    0.82550    0.38670    1.000
    N67      N        0.87720    0.81350    0.79490    1.000
    N68      N        0.93380    0.88660    0.89500    1.000
    N69      N        0.98540    0.99530    0.94110    1.000
    N70      N        0.68940    0.70090    0.49470    1.000
    N71      N        0.59630    0.66730    0.47920    1.000
    N72      N        0.56120    0.67450    0.54790    1.000
    N73      N        0.01860    0.70510    0.08230    1.000
    N74      N        0.99160    0.60500    0.03880    1.000
    N75      N        0.05420    0.55890    0.04430    1.000
    N76      N        0.20620    0.00530    0.19470    1.000
    N77      N        0.18810    0.02080    0.11710    1.000
    N78      N        0.12660    0.95210    0.01330    1.000
    N79      N        0.12280    0.93630    0.41770    1.000
    N80      N        0.06620    0.95280    0.46120    1.000
    N81      N        0.01460    0.00990    0.45570    1.000
    N82      N        0.31060    0.01150    0.30530    1.000
    N83      N        0.40370    0.07100    0.38290    1.000
    N84      N        0.43880    0.11330    0.48670    1.000
    N85      N        0.48140    0.56370    0.68650    1.000
    N86      N        0.50840    0.54720    0.61340    1.000
    N87      N        0.44580    0.49010    0.50470    1.000
    N88      N        0.29380    0.48850    0.79910    1.000
    N89      N        0.31190    0.42900    0.83270    1.000
    N90      N        0.37340    0.38670    0.82550    1.000
    N91      N        0.37720    0.79490    0.81350    1.000
    N92      N        0.43380    0.89500    0.88660    1.000
    N93      N        0.48540    0.94110    0.99530    1.000
    N94      N        0.18940    0.49470    0.70090    1.000
    N95      N        0.09630    0.47920    0.66730    1.000
    N96      N        0.06120    0.54790    0.67450    1.000
    N97      N        0.93630    0.91770    0.62280    1.000
    N98      N        0.95280    0.96120    0.56620    1.000
    N99      N        0.00990    0.95570    0.51460    1.000
    N100     N        0.01150    0.80530    0.81060    1.000
    N101     N        0.07100    0.88290    0.90370    1.000
    N102     N        0.11330    0.98670    0.93880    1.000
    N103     N        0.70510    0.58230    0.51860    1.000
    N104     N        0.60500    0.53880    0.49160    1.000
    N105     N        0.55890    0.54430    0.55420    1.000
    N106     N        0.00530    0.69470    0.70620    1.000
    N107     N        0.02080    0.61710    0.68810    1.000
    N108     N        0.95210    0.51330    0.62660    1.000
    N109     N        0.79490    0.31350    0.87720    1.000
    N110     N        0.89500    0.38660    0.93380    1.000
    N111     N        0.94110    0.49530    0.98540    1.000
    N112     N        0.49470    0.20090    0.68940    1.000
    N113     N        0.47920    0.16730    0.59630    1.000
    N114     N        0.54790    0.17450    0.56120    1.000
    N115     N        0.56370    0.18650    0.98140    1.000
    N116     N        0.54720    0.11340    0.00840    1.000
    N117     N        0.49010    0.00470    0.94580    1.000
    N118     N        0.48850    0.29910    0.79380    1.000
    N119     N        0.42900    0.33270    0.81190    1.000
    N120     N        0.38670    0.32550    0.87340    1.000
    N121     N        0.31350    0.37720    0.29490    1.000
    N122     N        0.38660    0.43380    0.39500    1.000
    N123     N        0.49530    0.48540    0.44110    1.000
    N124     N        0.20090    0.18940    0.99470    1.000
    N125     N        0.16730    0.09630    0.97920    1.000
    N126     N        0.17450    0.06120    0.04790    1.000
    N127     N        0.18650    0.48140    0.06370    1.000
    N128     N        0.11340    0.50840    0.04720    1.000
    N129     N        0.00470    0.44580    0.99010    1.000
    N130     N        0.29910    0.29380    0.98850    1.000
    N131     N        0.33270    0.31190    0.92900    1.000
    N132     N        0.32550    0.37340    0.88670    1.000
    N133     N        0.91770    0.12280    0.43630    1.000
    N134     N        0.96120    0.06620    0.45280    1.000
    N135     N        0.95570    0.01460    0.50990    1.000
    N136     N        0.80530    0.31060    0.51150    1.000
    N137     N        0.88290    0.40370    0.57100    1.000
    N138     N        0.98670    0.43880    0.61330    1.000
    N139     N        0.58230    0.01860    0.20510    1.000
    N140     N        0.53880    0.99160    0.10500    1.000
    N141     N        0.54430    0.05420    0.05890    1.000
    N142     N        0.69470    0.20620    0.50530    1.000
    N143     N        0.61710    0.18810    0.52080    1.000
    N144     N        0.51330    0.12660    0.45210    1.000
