data_functionalizedCrystal
_audit_creation_method	'EQeq! by Chris Wilmer'
_symmetry_space_group_name_H-M	'P1'
_symmetry_Int_Tables_number	1
_symmetry_cell_setting	triclinic
loop_
_symmetry_equiv_pos_as_xyz
  x,y,z
_cell_length_a	27.3238
_cell_length_b	27.3238
_cell_length_c	15.1036
_cell_angle_alpha	90
_cell_angle_beta	90
_cell_angle_gamma	120
loop_
_atom_site_label
_atom_site_type_symbol
_atom_site_fract_x
_atom_site_fract_y
_atom_site_fract_z
_atom_site_charge
Mof_S 	S 	0.2829	0.2363	0.0915	-0.247
Mof_O 	O 	0.3687	0.3179	0.1915	-0.418
Mof_O 	O 	0.3368	0.2727	0.3254	-0.493
Mof_C 	C 	0.34001	0.22198	0.20192	-0.14
Mof_C 	C 	0.3158	0.19726	0.12048	0.054
Mof_C 	C 	0.35731	0.18714	0.23807	0
Mof_C 	C 	0.34506	0.27219	0.23844	0.393
Mof_S 	S 	0.94957	0.56963	0.42483	-0.227
Mof_O 	O 	0.03537	0.65123	0.52483	-0.434
Mof_O 	O 	0.00347	0.60603	0.65873	-0.496
Mof_C 	C 	0.00668	0.55531	0.53525	-0.199
Mof_C 	C 	0.98247	0.53059	0.45381	0.114
Mof_C 	C 	0.02397	0.52047	0.5714	0.025
Mof_C 	C 	0.01173	0.60552	0.57177	0.402
Mof_S 	S 	0.61623	0.90297	0.75817	-0.213
Mof_O 	O 	0.70203	0.98457	0.85817	-0.387
Mof_O 	O 	0.67013	0.93937	0.99207	-0.488
Mof_C 	C 	0.67335	0.88864	0.86858	-0.133
Mof_C 	C 	0.64913	0.86393	0.78714	0.049
Mof_C 	C 	0.69064	0.85381	0.90474	0.006
Mof_C 	C 	0.67839	0.93886	0.90511	0.395
Mof_S 	S 	0.7637	0.0466	0.0915	-0.267
Mof_O 	O 	0.6821	0.0508	0.1915	-0.425
Mof_O 	O 	0.7273	0.0641	0.3254	-0.488
Mof_C 	C 	0.77802	0.11804	0.20192	-0.14
Mof_C 	C 	0.80274	0.11854	0.12048	0.061
Mof_C 	C 	0.81286	0.17017	0.23807	0.004
Mof_C 	C 	0.72781	0.07287	0.23844	0.39
Mof_S 	S 	0.43037	0.37993	0.42483	-0.239
Mof_O 	O 	0.34877	0.38413	0.52483	-0.417
Mof_O 	O 	0.39397	0.39743	0.65873	-0.49
Mof_C 	C 	0.44469	0.45137	0.53525	-0.137
Mof_C 	C 	0.46941	0.45187	0.45381	0.053
Mof_C 	C 	0.47953	0.5035	0.5714	0.001
Mof_C 	C 	0.39448	0.4062	0.57177	0.393
Mof_S 	S 	0.09703	0.71327	0.75817	-0.237
Mof_O 	O 	0.01543	0.71747	0.85817	-0.433
Mof_O 	O 	0.06063	0.73077	0.99207	-0.488
Mof_C 	C 	0.11136	0.7847	0.86858	-0.139
Mof_C 	C 	0.13607	0.78521	0.78714	0.053
Mof_C 	C 	0.14619	0.83684	0.90474	0.003
Mof_C 	C 	0.06114	0.73954	0.90511	0.39
Mof_S 	S 	0.9534	0.7171	0.0915	-0.201
Mof_O 	O 	0.9492	0.6313	0.1915	-0.393
Mof_O 	O 	0.9359	0.6632	0.3254	-0.488
Mof_C 	C 	0.88196	0.65999	0.20192	-0.132
Mof_C 	C 	0.88146	0.6842	0.12048	0.045
Mof_C 	C 	0.82983	0.64269	0.23807	0.001
Mof_C 	C 	0.92713	0.65494	0.23844	0.395
Mof_S 	S 	0.62007	0.05043	0.42483	-0.238
Mof_O 	O 	0.61587	0.96463	0.52483	-0.396
Mof_O 	O 	0.60257	0.99653	0.65873	-0.449
Mof_C 	C 	0.54863	0.99332	0.53525	-0.072
Mof_C 	C 	0.54813	0.01753	0.45381	-0.006
Mof_C 	C 	0.4965	0.97603	0.5714	-0.018
Mof_C 	C 	0.5938	0.98827	0.57177	0.374
Mof_S 	S 	0.28673	0.38377	0.75817	-0.239
Mof_O 	O 	0.28253	0.29797	0.85817	-0.419
Mof_O 	O 	0.26923	0.32987	0.99207	-0.491
Mof_C 	C 	0.2153	0.32665	0.86858	-0.136
Mof_C 	C 	0.21479	0.35087	0.78714	0.052
Mof_C 	C 	0.16316	0.30936	0.90474	-0.006
Mof_C 	C 	0.26046	0.32161	0.90511	0.392
Mof_S 	S 	0.2363	0.2829	0.4085	-0.246
Mof_O 	O 	0.3179	0.3687	0.3085	-0.417
Mof_O 	O 	0.2727	0.3368	0.1746	-0.492
Mof_C 	C 	0.22198	0.34001	0.29808	-0.139
Mof_C 	C 	0.19726	0.3158	0.37952	0.055
Mof_C 	C 	0.18714	0.35731	0.26193	0.001
Mof_C 	C 	0.27219	0.34506	0.26156	0.393
Mof_S 	S 	0.90297	0.61623	0.74183	-0.215
Mof_O 	O 	0.98457	0.70203	0.64183	-0.388
Mof_O 	O 	0.93937	0.67013	0.50793	-0.489
Mof_C 	C 	0.88864	0.67335	0.63142	-0.133
Mof_C 	C 	0.86393	0.64913	0.71286	0.049
Mof_C 	C 	0.85381	0.69064	0.59526	0.007
Mof_C 	C 	0.93886	0.67839	0.59489	0.395
Mof_S 	S 	0.56963	0.94957	0.07517	-0.227
Mof_O 	O 	0.65123	0.03537	0.97517	-0.434
Mof_O 	O 	0.60603	0.00347	0.84127	-0.496
Mof_C 	C 	0.55531	0.00668	0.96475	-0.198
Mof_C 	C 	0.53059	0.98247	0.04619	0.112
Mof_C 	C 	0.52047	0.02397	0.9286	0.024
Mof_C 	C 	0.60552	0.01173	0.92823	0.401
Mof_S 	S 	0.0466	0.7637	0.4085	-0.27
Mof_O 	O 	0.0508	0.6821	0.3085	-0.426
Mof_O 	O 	0.0641	0.7273	0.1746	-0.488
Mof_C 	C 	0.11804	0.77802	0.29808	-0.141
Mof_C 	C 	0.11854	0.80274	0.37952	0.061
Mof_C 	C 	0.17017	0.81286	0.26193	0.003
Mof_C 	C 	0.07287	0.72781	0.26156	0.39
Mof_S 	S 	0.71327	0.09703	0.74183	-0.237
Mof_O 	O 	0.71747	0.01543	0.64183	-0.434
Mof_O 	O 	0.73077	0.06063	0.50793	-0.491
Mof_C 	C 	0.7847	0.11136	0.63142	-0.139
Mof_C 	C 	0.78521	0.13607	0.71286	0.053
Mof_C 	C 	0.83684	0.14619	0.59526	0.002
Mof_C 	C 	0.73954	0.06114	0.59489	0.39
Mof_S 	S 	0.37993	0.43037	0.07517	-0.239
Mof_O 	O 	0.38413	0.34877	0.97517	-0.417
Mof_O 	O 	0.39743	0.39397	0.84127	-0.49
Mof_C 	C 	0.45137	0.44469	0.96475	-0.137
Mof_C 	C 	0.45187	0.46941	0.04619	0.053
Mof_C 	C 	0.5035	0.47953	0.9286	0.001
Mof_C 	C 	0.4062	0.39448	0.92823	0.393
Mof_S 	S 	0.7171	0.9534	0.4085	-0.202
Mof_O 	O 	0.6313	0.9492	0.3085	-0.395
Mof_O 	O 	0.6632	0.9359	0.1746	-0.489
Mof_C 	C 	0.65999	0.88196	0.29808	-0.132
Mof_C 	C 	0.6842	0.88146	0.37952	0.046
Mof_C 	C 	0.64269	0.82983	0.26193	0.001
Mof_C 	C 	0.65494	0.92713	0.26156	0.394
Mof_S 	S 	0.38377	0.28673	0.74183	-0.239
Mof_O 	O 	0.29797	0.28253	0.64183	-0.419
Mof_O 	O 	0.32987	0.26923	0.50793	-0.491
Mof_C 	C 	0.32665	0.2153	0.63142	-0.136
Mof_C 	C 	0.35087	0.21479	0.71286	0.051
Mof_C 	C 	0.30936	0.16316	0.59526	-0.007
Mof_C 	C 	0.32161	0.26046	0.59489	0.392
Mof_S 	S 	0.05043	0.62007	0.07517	-0.238
Mof_O 	O 	0.96463	0.61587	0.97517	-0.397
Mof_O 	O 	0.99653	0.60257	0.84127	-0.451
Mof_C 	C 	0.99332	0.54863	0.96475	-0.073
Mof_C 	C 	0.01753	0.54813	0.04619	-0.005
Mof_C 	C 	0.97603	0.4965	0.9286	-0.018
Mof_C 	C 	0.98827	0.5938	0.92823	0.374
Mof_S 	S 	0.7171	0.7637	0.9085	-0.232
Mof_O 	O 	0.6313	0.6821	0.8085	-0.418
Mof_O 	O 	0.6632	0.7273	0.6746	-0.489
Mof_C 	C 	0.65999	0.77802	0.79808	-0.137
Mof_C 	C 	0.6842	0.80274	0.87952	0.054
Mof_C 	C 	0.64269	0.81286	0.76193	0.004
Mof_C 	C 	0.65494	0.72781	0.76156	0.394
Mof_S 	S 	0.38377	0.09703	0.24183	-0.237
Mof_O 	O 	0.29797	0.01543	0.14183	-0.435
Mof_O 	O 	0.32987	0.06063	0.00793	-0.49
Mof_C 	C 	0.32665	0.11136	0.13142	-0.137
Mof_C 	C 	0.35087	0.13607	0.21286	0.05
Mof_C 	C 	0.30936	0.14619	0.09526	-0.006
Mof_C 	C 	0.32161	0.06114	0.09489	0.388
Mof_S 	S 	0.05043	0.43037	0.57517	-0.237
Mof_O 	O 	0.96463	0.34877	0.47517	-0.395
Mof_O 	O 	0.99653	0.39397	0.34127	-0.448
Mof_C 	C 	0.99332	0.44469	0.46475	-0.072
Mof_C 	C 	0.01753	0.46941	0.54619	-0.006
Mof_C 	C 	0.97603	0.47953	0.4286	-0.018
Mof_C 	C 	0.98827	0.39448	0.42823	0.374
Mof_S 	S 	0.2363	0.9534	0.9085	-0.206
Mof_O 	O 	0.3179	0.9492	0.8085	-0.393
Mof_O 	O 	0.2727	0.9359	0.6746	-0.49
Mof_C 	C 	0.22198	0.88196	0.79808	-0.134
Mof_C 	C 	0.19726	0.88146	0.87952	0.047
Mof_C 	C 	0.18714	0.82983	0.76193	0.002
Mof_C 	C 	0.27219	0.92713	0.76156	0.395
Mof_S 	S 	0.90297	0.28673	0.24183	-0.213
Mof_O 	O 	0.98457	0.28253	0.14183	-0.388
Mof_O 	O 	0.93937	0.26923	0.00793	-0.488
Mof_C 	C 	0.88864	0.2153	0.13142	-0.131
Mof_C 	C 	0.86393	0.21479	0.21286	0.047
Mof_C 	C 	0.85381	0.16316	0.09526	-0
Mof_C 	C 	0.93886	0.26046	0.09489	0.393
Mof_S 	S 	0.56963	0.62007	0.57517	-0.239
Mof_O 	O 	0.65123	0.61587	0.47517	-0.418
Mof_O 	O 	0.60603	0.60257	0.34127	-0.491
Mof_C 	C 	0.55531	0.54863	0.46475	-0.138
Mof_C 	C 	0.53059	0.54813	0.54619	0.053
Mof_C 	C 	0.52047	0.4965	0.4286	0.001
Mof_C 	C 	0.60552	0.5938	0.42823	0.394
Mof_S 	S 	0.0466	0.2829	0.9085	-0.275
Mof_O 	O 	0.0508	0.3687	0.8085	-0.425
Mof_O 	O 	0.0641	0.3368	0.6746	-0.489
Mof_C 	C 	0.11804	0.34001	0.79808	-0.141
Mof_C 	C 	0.11854	0.3158	0.87952	0.061
Mof_C 	C 	0.17017	0.35731	0.76193	0.001
Mof_C 	C 	0.07287	0.34506	0.76156	0.389
Mof_S 	S 	0.71327	0.61623	0.24183	-0.239
Mof_O 	O 	0.71747	0.70203	0.14183	-0.416
Mof_O 	O 	0.73077	0.67013	0.00793	-0.49
Mof_C 	C 	0.7847	0.67335	0.13142	-0.139
Mof_C 	C 	0.78521	0.64913	0.21286	0.056
Mof_C 	C 	0.83684	0.69064	0.09526	0.009
Mof_C 	C 	0.73954	0.67839	0.09489	0.395
Mof_S 	S 	0.37993	0.94957	0.57517	-0.226
Mof_O 	O 	0.38413	0.03537	0.47517	-0.433
Mof_O 	O 	0.39743	0.00347	0.34127	-0.496
Mof_C 	C 	0.45137	0.00668	0.46475	-0.199
Mof_C 	C 	0.45187	0.98247	0.54619	0.114
Mof_C 	C 	0.5035	0.02397	0.4286	0.025
Mof_C 	C 	0.4062	0.01173	0.42823	0.402
Mof_S 	S 	0.7637	0.7171	0.5915	-0.232
Mof_O 	O 	0.6821	0.6313	0.6915	-0.418
Mof_O 	O 	0.7273	0.6632	0.8254	-0.49
Mof_C 	C 	0.77802	0.65999	0.70192	-0.137
Mof_C 	C 	0.80274	0.6842	0.62048	0.053
Mof_C 	C 	0.81286	0.64269	0.73807	0.004
Mof_C 	C 	0.72781	0.65494	0.73844	0.394
Mof_S 	S 	0.43037	0.05043	0.92483	-0.238
Mof_O 	O 	0.34877	0.96463	0.02483	-0.396
Mof_O 	O 	0.39397	0.99653	0.15873	-0.45
Mof_C 	C 	0.44469	0.99332	0.03525	-0.074
Mof_C 	C 	0.46941	0.01753	0.95381	-0.005
Mof_C 	C 	0.47953	0.97603	0.0714	-0.018
Mof_C 	C 	0.39448	0.98827	0.07177	0.374
Mof_S 	S 	0.09703	0.38377	0.25817	-0.237
Mof_O 	O 	0.01543	0.29797	0.35817	-0.436
Mof_O 	O 	0.06063	0.32987	0.49207	-0.491
Mof_C 	C 	0.11136	0.32665	0.36858	-0.138
Mof_C 	C 	0.13607	0.35087	0.28714	0.05
Mof_C 	C 	0.14619	0.30936	0.40474	-0.006
Mof_C 	C 	0.06114	0.32161	0.40511	0.388
Mof_S 	S 	0.9534	0.2363	0.5915	-0.209
Mof_O 	O 	0.9492	0.3179	0.6915	-0.395
Mof_O 	O 	0.9359	0.2727	0.8254	-0.49
Mof_C 	C 	0.88196	0.22198	0.70192	-0.134
Mof_C 	C 	0.88146	0.19726	0.62048	0.047
Mof_C 	C 	0.82983	0.18714	0.73807	0.001
Mof_C 	C 	0.92713	0.27219	0.73844	0.395
Mof_S 	S 	0.62007	0.56963	0.92483	-0.239
Mof_O 	O 	0.61587	0.65123	0.02483	-0.418
Mof_O 	O 	0.60257	0.60603	0.15873	-0.491
Mof_C 	C 	0.54863	0.55531	0.03525	-0.138
Mof_C 	C 	0.54813	0.53059	0.95381	0.054
Mof_C 	C 	0.4965	0.52047	0.0714	0.001
Mof_C 	C 	0.5938	0.60552	0.07177	0.394
Mof_S 	S 	0.28673	0.90297	0.25817	-0.215
Mof_O 	O 	0.28253	0.98457	0.35817	-0.389
Mof_O 	O 	0.26923	0.93937	0.49207	-0.49
Mof_C 	C 	0.2153	0.88864	0.36858	-0.132
Mof_C 	C 	0.21479	0.86393	0.28714	0.047
Mof_C 	C 	0.16316	0.85381	0.40474	-0.001
Mof_C 	C 	0.26046	0.93886	0.40511	0.394
Mof_S 	S 	0.2829	0.0466	0.5915	-0.277
Mof_O 	O 	0.3687	0.0508	0.6915	-0.426
Mof_O 	O 	0.3368	0.0641	0.8254	-0.489
Mof_C 	C 	0.34001	0.11804	0.70192	-0.141
Mof_C 	C 	0.3158	0.11854	0.62048	0.061
Mof_C 	C 	0.35731	0.17017	0.73807	0.001
Mof_C 	C 	0.34506	0.07287	0.73844	0.389
Mof_S 	S 	0.94957	0.37993	0.92483	-0.227
Mof_O 	O 	0.03537	0.38413	0.02483	-0.433
Mof_O 	O 	0.00347	0.39743	0.15873	-0.496
Mof_C 	C 	0.00668	0.45137	0.03525	-0.198
Mof_C 	C 	0.98247	0.45187	0.95381	0.112
Mof_C 	C 	0.02397	0.5035	0.0714	0.024
Mof_C 	C 	0.01173	0.4062	0.07177	0.401
Mof_S 	S 	0.61623	0.71327	0.25817	-0.239
Mof_O 	O 	0.70203	0.71747	0.35817	-0.416
Mof_O 	O 	0.67013	0.73077	0.49207	-0.49
Mof_C 	C 	0.67335	0.7847	0.36858	-0.139
Mof_C 	C 	0.64913	0.78521	0.28714	0.056
Mof_C 	C 	0.69064	0.83684	0.40474	0.009
Mof_C 	C 	0.67839	0.73954	0.40511	0.395
Mof_Mn	Mn	0.3098	0.33333	0.08333	1.067
Mof_Mn	Mn	0.66667	0.97647	0.08333	1.115
Mof_Mn	Mn	0.33333	0.3098	0.41667	1.067
Mof_Mn	Mn	0.02353	0.6902	0.08333	1.015
Mof_Mn	Mn	0.35687	0.35687	0.75	1.067
Mof_Mn	Mn	-5.07705e-17	0.64313	0.75	1.003
Mof_Mn	Mn	0.97647	0.66667	0.41667	1.118
Mof_Mn	Mn	0.64313	0	0.75	0.999
Mof_Mn	Mn	0.6902	0.02353	0.41667	1.019
Mof_Mn	Mn	0.6902	0.66667	0.91667	1.067
Mof_Mn	Mn	0.35687	0	0.25	1.002
Mof_Mn	Mn	0.02353	0.33333	0.58333	1.019
Mof_Mn	Mn	0.33333	0.02353	0.91667	1.017
Mof_Mn	Mn	6.35992e-18	0.35687	0.25	0.999
Mof_Mn	Mn	0.97647	0.3098	0.91667	1.114
Mof_Mn	Mn	0.64313	0.64313	0.25	1.067
Mof_Mn	Mn	0.66667	0.6902	0.58333	1.067
Mof_Mn	Mn	0.3098	0.97647	0.58333	1.119
Mof_Mn	Mn	0.4065	0.4065	0.25	0.607
Mof_Mn	Mn	0.07317	0.73983	0.58333	0.59
Mof_Mn	Mn	0.73983	0.07317	0.91667	0.587
Mof_Mn	Mn	0.5935	0	0.25	0.563
Mof_Mn	Mn	0.26017	0.33333	0.58333	0.603
Mof_Mn	Mn	0.92683	0.66667	0.91667	0.629
Mof_Mn	Mn	-1.69235e-17	0.5935	0.25	0.561
Mof_Mn	Mn	0.66667	0.92683	0.58333	0.631
Mof_Mn	Mn	0.33333	0.26017	0.91667	0.603
Mof_Mn	Mn	0.5935	0.5935	0.75	0.607
Mof_Mn	Mn	0.26017	0.92683	0.08333	0.624
Mof_Mn	Mn	0.92683	0.26017	0.41667	0.627
Mof_Mn	Mn	0.4065	0	0.75	0.561
Mof_Mn	Mn	0.07317	0.33333	0.08333	0.585
Mof_Mn	Mn	0.73983	0.66667	0.41667	0.61
Mof_Mn	Mn	-4.20365e-18	0.4065	0.75	0.563
Mof_Mn	Mn	0.66667	0.73983	0.08333	0.61
Mof_Mn	Mn	0.33333	0.07317	0.41667	0.586
_end
