data_functionalizedCrystal
_audit_creation_method	'EQeq! by Chris Wilmer'
_symmetry_space_group_name_H-M	'P1'
_symmetry_Int_Tables_number	1
_symmetry_cell_setting	triclinic
loop_
_symmetry_equiv_pos_as_xyz
  x,y,z
_cell_length_a	19.2491
_cell_length_b	9.275
_cell_length_c	9.7019
_cell_angle_alpha	90
_cell_angle_beta	93.793
_cell_angle_gamma	90
loop_
_atom_site_label
_atom_site_type_symbol
_atom_site_fract_x
_atom_site_fract_y
_atom_site_fract_z
_atom_site_charge
Mof_P 	P 	0.8365	0.1598	0.5227	1.635
Mof_P 	P 	0.9481	0.8444	0.2175	1.301
Mof_P 	P 	0.5803	0.8989	0.3972	1.688
Mof_P 	P 	0.6008	0.1516	0.7789	1.764
Mof_Al	Al	0.9423	0.9223	0.5117	6.531
Mof_Al	Al	0.9195	0.1572	0.2669	6.66
Mof_Al	Al	0.6716	0.151	0.4904	7.004
Mof_Al	Al	0.4613	0.1442	0.3029	7.291
Mof_O 	O 	0.8689	0.0138	0.5661	-1.861
Mof_O 	O 	0.8406	0.1795	0.3658	-1.764
Mof_O 	O 	0.7593	0.1468	0.5408	-2.064
Mof_O 	O 	0.8712	0.2848	0.6068	-1.759
Mof_O 	O 	0.921	0.8079	0.3588	-1.703
Mof_O 	O 	0.9183	0.7358	0.1108	-1.598
Mof_O 	O 	0.0271	0.8248	0.2254	-1.727
Mof_O 	O 	0.9381	0.9973	0.1591	-1.643
Mof_O 	O 	0.5174	0.9975	0.3669	-2.001
Mof_O 	O 	0.582	0.832	0.5423	-2.046
Mof_O 	O 	0.593	0.7846	0.2869	-1.768
Mof_O 	O 	0.6452	0.9963	0.3969	-2.017
Mof_O 	O 	0.5375	0.2445	0.798	-2.087
Mof_O 	O 	0.6213	0.1815	0.6299	-2.156
Mof_O 	O 	0.5854	0.9929	0.8096	-1.834
Mof_O 	O 	0.657	0.1924	0.8915	-2.019
Mof_O 	O 	0.971	0.0763	0.4107	-3.845
Mof_P 	P 	0.1635	0.6598	0.9773	1.633
Mof_P 	P 	0.0519	0.3444	0.2825	1.314
Mof_P 	P 	0.4197	0.3989	0.1028	1.69
Mof_P 	P 	0.3992	0.6516	0.7211	1.761
Mof_Al	Al	0.0577	0.4223	0.9883	6.54
Mof_Al	Al	0.0805	0.6572	0.2331	6.644
Mof_Al	Al	0.3284	0.651	0.0096	7.044
Mof_Al	Al	0.5387	0.6442	0.1971	7.293
Mof_O 	O 	0.1311	0.5138	0.9339	-1.869
Mof_O 	O 	0.1594	0.6795	0.1342	-1.756
Mof_O 	O 	0.2407	0.6468	0.9592	-2.074
Mof_O 	O 	0.1288	0.7848	0.8932	-1.762
Mof_O 	O 	0.079	0.3079	0.1412	-1.697
Mof_O 	O 	0.0817	0.2358	0.3892	-1.597
Mof_O 	O 	0.9729	0.3248	0.2746	-1.748
Mof_O 	O 	0.0619	0.4973	0.3409	-1.628
Mof_O 	O 	0.4826	0.4975	0.1331	-1.999
Mof_O 	O 	0.418	0.332	0.9577	-2.045
Mof_O 	O 	0.407	0.2846	0.2131	-1.767
Mof_O 	O 	0.3548	0.4963	0.1031	-2.019
Mof_O 	O 	0.4625	0.7445	0.702	-2.086
Mof_O 	O 	0.3787	0.6815	0.8701	-2.166
Mof_O 	O 	0.4146	0.4929	0.6904	-1.83
Mof_O 	O 	0.343	0.6924	0.6085	-2.014
Mof_O 	O 	0.029	0.5763	0.0893	-3.84
Mof_P 	P 	0.1635	0.8402	0.4773	1.634
Mof_P 	P 	0.0519	0.1556	0.7825	1.3
Mof_P 	P 	0.4197	0.1011	0.6028	1.687
Mof_P 	P 	0.3992	0.8484	0.2211	1.763
Mof_Al	Al	0.0577	0.0777	0.4883	6.53
Mof_Al	Al	0.0805	0.8428	0.7331	6.659
Mof_Al	Al	0.3284	0.849	0.5096	7.003
Mof_Al	Al	0.5387	0.8558	0.6971	7.29
Mof_O 	O 	0.1311	0.9862	0.4339	-1.861
Mof_O 	O 	0.1594	0.8205	0.6342	-1.764
Mof_O 	O 	0.2407	0.8532	0.4592	-2.064
Mof_O 	O 	0.1288	0.7152	0.3932	-1.759
Mof_O 	O 	0.079	0.1921	0.6412	-1.703
Mof_O 	O 	0.0817	0.2642	0.8892	-1.598
Mof_O 	O 	0.9729	0.1752	0.7746	-1.727
Mof_O 	O 	0.0619	0.0027	0.8409	-1.643
Mof_O 	O 	0.4826	0.0025	0.6331	-2.001
Mof_O 	O 	0.418	0.168	0.4577	-2.046
Mof_O 	O 	0.407	0.2154	0.7131	-1.768
Mof_O 	O 	0.3548	0.0037	0.6031	-2.017
Mof_O 	O 	0.4625	0.7555	0.202	-2.087
Mof_O 	O 	0.3787	0.8185	0.3701	-2.156
Mof_O 	O 	0.4146	0.0071	0.1904	-1.834
Mof_O 	O 	0.343	0.8076	0.1085	-2.019
Mof_O 	O 	0.029	0.9237	0.5893	-3.845
Mof_P 	P 	0.8365	0.3402	0.0227	1.633
Mof_P 	P 	0.9481	0.6556	0.7175	1.314
Mof_P 	P 	0.5803	0.6011	0.8972	1.69
Mof_P 	P 	0.6008	0.3484	0.2789	1.761
Mof_Al	Al	0.9423	0.5777	0.0117	6.54
Mof_Al	Al	0.9195	0.3428	0.7669	6.644
Mof_Al	Al	0.6716	0.349	0.9904	7.044
Mof_Al	Al	0.4613	0.3558	0.8029	7.293
Mof_O 	O 	0.8689	0.4862	0.0661	-1.869
Mof_O 	O 	0.8406	0.3205	0.8658	-1.756
Mof_O 	O 	0.7593	0.3532	0.0408	-2.074
Mof_O 	O 	0.8712	0.2152	0.1068	-1.762
Mof_O 	O 	0.921	0.6921	0.8588	-1.697
Mof_O 	O 	0.9183	0.7642	0.6108	-1.597
Mof_O 	O 	0.0271	0.6752	0.7254	-1.748
Mof_O 	O 	0.9381	0.5027	0.6591	-1.628
Mof_O 	O 	0.5174	0.5025	0.8669	-1.999
Mof_O 	O 	0.582	0.668	0.0423	-2.045
Mof_O 	O 	0.593	0.7154	0.7869	-1.767
Mof_O 	O 	0.6452	0.5037	0.8969	-2.019
Mof_O 	O 	0.5375	0.2555	0.298	-2.086
Mof_O 	O 	0.6213	0.3185	0.1299	-2.166
Mof_O 	O 	0.5854	0.5071	0.3096	-1.83
Mof_O 	O 	0.657	0.3076	0.3915	-2.014
Mof_O 	O 	0.971	0.4237	0.9107	-3.84
_end
