# CIF file generated by openbabel 3.1.0, see https://openbabel.org
data_I
_chemical_name_common 'image0'
_cell_length_a 10.058
_cell_length_b 16.6
_cell_length_c 14.739
_cell_angle_alpha 90
_cell_angle_beta 94.75
_cell_angle_gamma 90
_space_group_name_H-M_alt 'P 1'
_space_group_name_Hall 'P 1'
loop_
    _symmetry_equiv_pos_as_xyz
    x,y,z
loop_
    _atom_site_label
    _atom_site_type_symbol
    _atom_site_fract_x
    _atom_site_fract_y
    _atom_site_fract_z
    _atom_site_occupancy
    Zn1      Zn       0.22781    0.87867    0.51417    1.000
    Zn2      Zn       0.46304    0.82228    0.68425    1.000
    O1       O        0.54550    0.44150    0.31590    1.000
    O2       O        0.65950    0.47540    0.44700    1.000
    C1       C        0.57670    0.48810    0.38070    1.000
    C2       C        0.50790    0.56770    0.38100    1.000
    C3       C        0.44000    0.68670    0.45800    1.000
    C4       C        0.50710    0.61380    0.45820    1.000
    H1       H        0.55370    0.59540    0.51300    1.000
    C5       C        0.37150    0.66870    0.30270    1.000
    C6       C        0.43460    0.59340    0.30240    1.000
    H2       H        0.42730    0.56060    0.24930    1.000
    C7       C        0.37200    0.71210    0.38030    1.000
    H3       H        0.32380    0.76130    0.38020    1.000
    O3       O        0.16560    0.84900    0.63910    1.000
    O4       O        0.30540    0.79930    0.75090    1.000
    C8       C        0.19210    0.82140    0.71430    1.000
    C9       C        0.07750    0.80860    0.77400    1.000
    C10      C        0.84220    0.80510    0.78620    1.000
    C11      C        0.94710    0.81650    0.73520    1.000
    H4       H        0.93130    0.83000    0.67260    1.000
    C12      C        0.86210    0.78590    0.87640    1.000
    H5       H        0.78910    0.77730    0.91220    1.000
    C13      C        0.10020    0.79150    0.86490    1.000
    H6       H        0.18880    0.78810    0.89250    1.000
    C14      C        0.99560    0.77936    0.91470    1.000
    O5       O        0.60550    0.80140    0.78940    1.000
    C15      C        0.44290    0.73530    0.54420    1.000
    O6       O        0.40390    0.80760    0.54020    1.000
    O7       O        0.68720    0.82980    0.65880    1.000
    C16      C        0.70240    0.81410    0.74060    1.000
    N1       N        0.01990    0.75955    0.00570    1.000
    N2       N        0.92930    0.71970    0.05060    1.000
    N3       N        0.98430    0.71110    0.13490    1.000
    C17      C        0.10730    0.74520    0.14130    1.000
    C18      C        0.13210    0.77620    0.05970    1.000
    H7       H        0.21000    0.80340    0.04380    1.000
    C19      C        0.18800    0.74350    0.22780    1.000
    H8       H        0.23460    0.79560    0.23810    1.000
    H9       H        0.13030    0.73470    0.27810    1.000
    O8       O        0.28320    0.67970    0.22590    1.000
    O9       O        0.48120    0.70430    0.61920    1.000
    N4       N        0.32480    0.71180    0.21410    1.000
    N5       N        0.34840    0.68560    0.13150    1.000
    N6       N        0.26700    0.72640    0.07340    1.000
    C20      C        0.19200    0.77770    0.11970    1.000
    C21      C        0.22930    0.76880    0.21120    1.000
    H10      H        0.19550    0.79660    0.26080    1.000
    C22      C        0.09240    0.83220    0.07390    1.000
    H11      H        0.05490    0.86710    0.11990    1.000
    H12      H        0.13660    0.86740    0.03120    1.000
    O10      O        0.98760    0.78930    0.02550    1.000
    Zn3      Zn       0.77219    0.37867    0.48583    1.000
    Zn4      Zn       0.53696    0.32228    0.31575    1.000
    O11      O        0.45450    0.94150    0.68410    1.000
    O12      O        0.34050    0.97540    0.55300    1.000
    C23      C        0.42330    0.98810    0.61930    1.000
    C24      C        0.49210    0.06770    0.61900    1.000
    C25      C        0.56000    0.18670    0.54200    1.000
    C26      C        0.49290    0.11380    0.54180    1.000
    H13      H        0.44630    0.09540    0.48700    1.000
    C27      C        0.62850    0.16870    0.69730    1.000
    C28      C        0.56540    0.09340    0.69760    1.000
    H14      H        0.57270    0.06060    0.75070    1.000
    C29      C        0.62800    0.21210    0.61970    1.000
    H15      H        0.67620    0.26130    0.61980    1.000
    O13      O        0.83440    0.34900    0.36090    1.000
    O14      O        0.69460    0.29930    0.24910    1.000
    C30      C        0.80790    0.32140    0.28570    1.000
    C31      C        0.92250    0.30860    0.22600    1.000
    C32      C        0.15780    0.30510    0.21380    1.000
    C33      C        0.05290    0.31650    0.26480    1.000
    H16      H        0.06870    0.33000    0.32740    1.000
    C34      C        0.13790    0.28590    0.12360    1.000
    H17      H        0.21090    0.27730    0.08780    1.000
    C35      C        0.89980    0.29150    0.13510    1.000
    H18      H        0.81120    0.28810    0.10750    1.000
    C36      C        0.00440    0.27936    0.08530    1.000
    O15      O        0.39450    0.30140    0.21060    1.000
    C37      C        0.55710    0.23530    0.45580    1.000
    O16      O        0.59610    0.30760    0.45980    1.000
    O17      O        0.31280    0.32980    0.34120    1.000
    C38      C        0.29760    0.31410    0.25940    1.000
    N7       N        0.98010    0.25955    0.99430    1.000
    N8       N        0.07070    0.21970    0.94940    1.000
    N9       N        0.01570    0.21110    0.86510    1.000
    C39      C        0.89270    0.24520    0.85870    1.000
    C40      C        0.86790    0.27620    0.94030    1.000
    H19      H        0.79000    0.30340    0.95620    1.000
    C41      C        0.81200    0.24350    0.77220    1.000
    H20      H        0.76540    0.29560    0.76190    1.000
    H21      H        0.86970    0.23470    0.72190    1.000
    O18      O        0.71680    0.17970    0.77410    1.000
    O19      O        0.51880    0.20430    0.38080    1.000
    N10      N        0.67520    0.21180    0.78590    1.000
    N11      N        0.65160    0.18560    0.86850    1.000
    N12      N        0.73300    0.22640    0.92660    1.000
    C42      C        0.80800    0.27770    0.88030    1.000
    C43      C        0.77070    0.26880    0.78880    1.000
    H22      H        0.80450    0.29660    0.73920    1.000
    C44      C        0.90760    0.33220    0.92610    1.000
    H23      H        0.94510    0.36710    0.88010    1.000
    H24      H        0.86340    0.36740    0.96880    1.000
    O20      O        0.01240    0.28930    0.97450    1.000
