data_functionalizedCrystal
_audit_creation_method	'EQeq! by Chris Wilmer'
_symmetry_space_group_name_H-M	'P1'
_symmetry_Int_Tables_number	1
_symmetry_cell_setting	triclinic
loop_
_symmetry_equiv_pos_as_xyz
  x,y,z
_cell_length_a	10.2355
_cell_length_b	10.2355
_cell_length_c	28.105
_cell_angle_alpha	90
_cell_angle_beta	90
_cell_angle_gamma	90
loop_
_atom_site_label
_atom_site_type_symbol
_atom_site_fract_x
_atom_site_fract_y
_atom_site_fract_z
_atom_site_charge
Mof_Ag	Ag	0.60614	0.19679	0.2336	0.508
Mof_N 	N 	0.8106	0.0362	0.02303	-0.199
Mof_N 	N 	0.7519	0.0439	0.22032	-0.187
Mof_O 	O 	0.7877	0.2596	0.1655	-0.28
Mof_C 	C 	0.7922	0.046	0.06988	0.034
Mof_H 	H 	0.7393	0.9846	0.0849	0.01
Mof_C 	C 	0.8485	0.1436	0.09707	-0.066
Mof_C 	C 	0.9291	0.2336	0.07572	0.014
Mof_H 	H 	0.9667	0.3008	0.0933	0.021
Mof_C 	C 	0.9529	0.2217	0.0273	-0.116
Mof_H 	H 	0.0088	0.2796	0.0119	0.055
Mof_C 	C 	0.8928	0.1234	0.00247	0.061
Mof_H 	H 	0.9091	0.1162	0.97	-0.012
Mof_C 	C 	0.8151	0.1551	0.14851	0.124
Mof_C 	C 	0.8214	0.0366	0.17966	0.046
Mof_C 	C 	0.903	0.9343	0.16966	-0.112
Mof_H 	H 	0.9459	0.9302	0.1405	0.06
Mof_C 	C 	0.9214	0.8364	0.20342	0.039
Mof_H 	H 	0.9776	0.7668	0.1977	0.002
Mof_C 	C 	0.8541	0.8461	0.24511	-0.124
Mof_H 	H 	0.8661	0.7836	0.2688	0.058
Mof_C 	C 	0.7685	0.948	0.25235	0.072
Mof_H 	H 	0.7205	0.9504	0.2804	-0.01
Mof_Ag	Ag	0.39386	0.80321	0.7336	0.509
Mof_N 	N 	0.1894	0.9638	0.52303	-0.198
Mof_N 	N 	0.2481	0.9561	0.72032	-0.186
Mof_O 	O 	0.2123	0.7404	0.6655	-0.279
Mof_C 	C 	0.2078	0.954	0.56988	0.034
Mof_H 	H 	0.2607	0.0154	0.5849	0.01
Mof_C 	C 	0.1515	0.8564	0.59707	-0.066
Mof_C 	C 	0.0709	0.7664	0.57572	0.014
Mof_H 	H 	0.0333	0.6992	0.5933	0.021
Mof_C 	C 	0.0471	0.7783	0.5273	-0.116
Mof_H 	H 	0.9912	0.7204	0.5119	0.055
Mof_C 	C 	0.1072	0.8766	0.50247	0.06
Mof_H 	H 	0.0909	0.8838	0.47	-0.011
Mof_C 	C 	0.1849	0.8449	0.64851	0.124
Mof_C 	C 	0.1786	0.9634	0.67966	0.046
Mof_C 	C 	0.097	0.0657	0.66966	-0.112
Mof_H 	H 	0.0541	0.0698	0.6405	0.06
Mof_C 	C 	0.0786	0.1636	0.70342	0.039
Mof_H 	H 	0.0224	0.2332	0.6977	0.002
Mof_C 	C 	0.1459	0.1539	0.74511	-0.124
Mof_H 	H 	0.1339	0.2164	0.7688	0.058
Mof_C 	C 	0.2315	0.052	0.75235	0.072
Mof_H 	H 	0.2795	0.0496	0.7804	-0.01
Mof_Ag	Ag	0.30321	0.10614	0.4836	0.507
Mof_N 	N 	0.4638	0.3106	0.27303	-0.198
Mof_N 	N 	0.4561	0.2519	0.47032	-0.186
Mof_O 	O 	0.2404	0.2877	0.4155	-0.279
Mof_C 	C 	0.454	0.2922	0.31988	0.031
Mof_H 	H 	0.5154	0.2393	0.3349	0.012
Mof_C 	C 	0.3564	0.3485	0.34707	-0.066
Mof_C 	C 	0.2664	0.4291	0.32572	0.014
Mof_H 	H 	0.1992	0.4667	0.3433	0.021
Mof_C 	C 	0.2783	0.4529	0.2773	-0.117
Mof_H 	H 	0.2204	0.5088	0.2619	0.056
Mof_C 	C 	0.3766	0.3928	0.25247	0.061
Mof_H 	H 	0.3838	0.4091	0.22	-0.012
Mof_C 	C 	0.3449	0.3151	0.39851	0.124
Mof_C 	C 	0.4634	0.3214	0.42966	0.043
Mof_C 	C 	0.5657	0.403	0.41966	-0.109
Mof_H 	H 	0.5698	0.4459	0.3905	0.059
Mof_C 	C 	0.6636	0.4214	0.45342	0.038
Mof_H 	H 	0.7332	0.4776	0.4477	0.003
Mof_C 	C 	0.6539	0.3541	0.49511	-0.124
Mof_H 	H 	0.7164	0.3661	0.5188	0.058
Mof_C 	C 	0.552	0.2685	0.50235	0.073
Mof_H 	H 	0.5496	0.2205	0.5304	-0.01
Mof_Ag	Ag	0.69679	0.89386	0.9836	0.508
Mof_N 	N 	0.5362	0.6894	0.77303	-0.199
Mof_N 	N 	0.5439	0.7481	0.97032	-0.186
Mof_O 	O 	0.7596	0.7123	0.9155	-0.279
Mof_C 	C 	0.546	0.7078	0.81988	0.031
Mof_H 	H 	0.4846	0.7607	0.8349	0.012
Mof_C 	C 	0.6436	0.6515	0.84707	-0.066
Mof_C 	C 	0.7336	0.5709	0.82572	0.014
Mof_H 	H 	0.8008	0.5333	0.8433	0.021
Mof_C 	C 	0.7217	0.5471	0.7773	-0.117
Mof_H 	H 	0.7796	0.4912	0.7619	0.056
Mof_C 	C 	0.6234	0.6072	0.75247	0.061
Mof_H 	H 	0.6162	0.5909	0.72	-0.012
Mof_C 	C 	0.6551	0.6849	0.89851	0.124
Mof_C 	C 	0.5366	0.6786	0.92966	0.043
Mof_C 	C 	0.4343	0.597	0.91966	-0.108
Mof_H 	H 	0.4302	0.5541	0.8905	0.059
Mof_C 	C 	0.3364	0.5786	0.95342	0.037
Mof_H 	H 	0.2668	0.5224	0.9477	0.003
Mof_C 	C 	0.3461	0.6459	0.99511	-0.123
Mof_H 	H 	0.2836	0.6339	0.0188	0.058
Mof_C 	C 	0.448	0.7315	0.00235	0.072
Mof_H 	H 	0.4504	0.7795	0.0304	-0.01
Mof_Ag	Ag	0.89386	0.69679	0.0164	0.508
Mof_N 	N 	0.6894	0.5362	0.22697	-0.199
Mof_N 	N 	0.7481	0.5439	0.02968	-0.186
Mof_O 	O 	0.7123	0.7596	0.0845	-0.279
Mof_C 	C 	0.7078	0.546	0.18012	0.031
Mof_H 	H 	0.7607	0.4846	0.1651	0.012
Mof_C 	C 	0.6515	0.6436	0.15293	-0.066
Mof_C 	C 	0.5709	0.7336	0.17428	0.014
Mof_H 	H 	0.5333	0.8008	0.1567	0.021
Mof_C 	C 	0.5471	0.7217	0.2227	-0.117
Mof_H 	H 	0.4912	0.7796	0.2381	0.056
Mof_C 	C 	0.6072	0.6234	0.24753	0.061
Mof_H 	H 	0.5909	0.6162	0.28	-0.012
Mof_C 	C 	0.6849	0.6551	0.10149	0.124
Mof_C 	C 	0.6786	0.5366	0.07034	0.043
Mof_C 	C 	0.597	0.4343	0.08034	-0.108
Mof_H 	H 	0.5541	0.4302	0.1095	0.059
Mof_C 	C 	0.5786	0.3364	0.04658	0.037
Mof_H 	H 	0.5224	0.2668	0.0523	0.003
Mof_C 	C 	0.6459	0.3461	0.00489	-0.123
Mof_H 	H 	0.6339	0.2836	0.9812	0.058
Mof_C 	C 	0.7315	0.448	0.99765	0.072
Mof_H 	H 	0.7795	0.4504	0.9696	-0.01
Mof_Ag	Ag	0.10614	0.30321	0.5164	0.507
Mof_N 	N 	0.3106	0.4638	0.72697	-0.198
Mof_N 	N 	0.2519	0.4561	0.52968	-0.186
Mof_O 	O 	0.2877	0.2404	0.5845	-0.279
Mof_C 	C 	0.2922	0.454	0.68012	0.031
Mof_H 	H 	0.2393	0.5154	0.6651	0.012
Mof_C 	C 	0.3485	0.3564	0.65293	-0.066
Mof_C 	C 	0.4291	0.2664	0.67428	0.014
Mof_H 	H 	0.4667	0.1992	0.6567	0.021
Mof_C 	C 	0.4529	0.2783	0.7227	-0.117
Mof_H 	H 	0.5088	0.2204	0.7381	0.056
Mof_C 	C 	0.3928	0.3766	0.74753	0.061
Mof_H 	H 	0.4091	0.3838	0.78	-0.012
Mof_C 	C 	0.3151	0.3449	0.60149	0.124
Mof_C 	C 	0.3214	0.4634	0.57034	0.043
Mof_C 	C 	0.403	0.5657	0.58034	-0.109
Mof_H 	H 	0.4459	0.5698	0.6095	0.059
Mof_C 	C 	0.4214	0.6636	0.54658	0.038
Mof_H 	H 	0.4776	0.7332	0.5523	0.003
Mof_C 	C 	0.3541	0.6539	0.50489	-0.124
Mof_H 	H 	0.3661	0.7164	0.4812	0.058
Mof_C 	C 	0.2685	0.552	0.49765	0.073
Mof_H 	H 	0.2205	0.5496	0.4696	-0.01
Mof_Ag	Ag	0.19679	0.60614	0.7664	0.509
Mof_N 	N 	0.0362	0.8106	0.97697	-0.198
Mof_N 	N 	0.0439	0.7519	0.77968	-0.186
Mof_O 	O 	0.2596	0.7877	0.8345	-0.279
Mof_C 	C 	0.046	0.7922	0.93012	0.034
Mof_H 	H 	0.9846	0.7393	0.9151	0.01
Mof_C 	C 	0.1436	0.8485	0.90293	-0.066
Mof_C 	C 	0.2336	0.9291	0.92428	0.014
Mof_H 	H 	0.3008	0.9667	0.9067	0.021
Mof_C 	C 	0.2217	0.9529	0.9727	-0.116
Mof_H 	H 	0.2796	0.0088	0.9881	0.055
Mof_C 	C 	0.1234	0.8928	0.99753	0.061
Mof_H 	H 	0.1162	0.9091	0.03	-0.012
Mof_C 	C 	0.1551	0.8151	0.85149	0.124
Mof_C 	C 	0.0366	0.8214	0.82034	0.046
Mof_C 	C 	0.9343	0.903	0.83034	-0.112
Mof_H 	H 	0.9302	0.9459	0.8595	0.06
Mof_C 	C 	0.8364	0.9214	0.79658	0.039
Mof_H 	H 	0.7668	0.9776	0.8023	0.002
Mof_C 	C 	0.8461	0.8541	0.75489	-0.124
Mof_H 	H 	0.7836	0.8661	0.7312	0.058
Mof_C 	C 	0.948	0.7685	0.74765	0.072
Mof_H 	H 	0.9504	0.7205	0.7196	-0.01
Mof_Ag	Ag	0.80321	0.39386	0.2664	0.509
Mof_N 	N 	0.9638	0.1894	0.47697	-0.198
Mof_N 	N 	0.9561	0.2481	0.27968	-0.186
Mof_O 	O 	0.7404	0.2123	0.3345	-0.279
Mof_C 	C 	0.954	0.2078	0.43012	0.034
Mof_H 	H 	0.0154	0.2607	0.4151	0.01
Mof_C 	C 	0.8564	0.1515	0.40293	-0.066
Mof_C 	C 	0.7664	0.0709	0.42428	0.014
Mof_H 	H 	0.6992	0.0333	0.4067	0.021
Mof_C 	C 	0.7783	0.0471	0.4727	-0.116
Mof_H 	H 	0.7204	0.9912	0.4881	0.055
Mof_C 	C 	0.8766	0.1072	0.49753	0.06
Mof_H 	H 	0.8838	0.0909	0.53	-0.011
Mof_C 	C 	0.8449	0.1849	0.35149	0.124
Mof_C 	C 	0.9634	0.1786	0.32034	0.046
Mof_C 	C 	0.0657	0.097	0.33034	-0.112
Mof_H 	H 	0.0698	0.0541	0.3595	0.06
Mof_C 	C 	0.1636	0.0786	0.29658	0.039
Mof_H 	H 	0.2332	0.0224	0.3023	0.002
Mof_C 	C 	0.1539	0.1459	0.25489	-0.124
Mof_H 	H 	0.2164	0.1339	0.2312	0.058
Mof_C 	C 	0.052	0.2315	0.24765	0.072
Mof_H 	H 	0.0496	0.2795	0.2196	-0.01
_end
