data_functionalizedCrystal
_audit_creation_method	'EQeq! by Chris Wilmer'
_symmetry_space_group_name_H-M	'P1'
_symmetry_Int_Tables_number	1
_symmetry_cell_setting	triclinic
loop_
_symmetry_equiv_pos_as_xyz
  x,y,z
_cell_length_a	7.119
_cell_length_b	8.783
_cell_length_c	15.067
_cell_angle_alpha	79.61
_cell_angle_beta	87.52
_cell_angle_gamma	83.21
loop_
_atom_site_label
_atom_site_type_symbol
_atom_site_fract_x
_atom_site_fract_y
_atom_site_fract_z
_atom_site_charge
Mof_K 	K 	0.01373	0.55182	0.12751	3.509
Mof_K 	K 	0.98627	0.44818	0.87249	3.509
Mof_Gd	Gd	0.52396	0.39018	0.22509	1.397
Mof_Gd	Gd	0.47604	0.60982	0.77491	1.397
Mof_H 	H 	0.3246	0.4912	0.4861	0.039
Mof_H 	H 	0.6266	0.0346	0.8542	-0.066
Mof_H 	H 	0.6754	0.5088	0.5139	0.039
Mof_H 	H 	0.3734	0.9654	0.1458	-0.066
Mof_C 	C 	0.1936	0.4945	0.4919	0.011
Mof_C 	C 	0.0921	0.4663	0.4215	-0.08
Mof_C 	C 	0.1044	0.5276	0.5709	-0.126
Mof_C 	C 	0.2078	0.4292	0.34	0.342
Mof_C 	C 	0.222	0.5586	0.6446	0.411
Mof_C 	C 	0.488	0.1493	0.9468	-0.173
Mof_C 	C 	0.2986	0.2621	0.0703	0.553
Mof_C 	C 	0.4103	0.1273	0.0351	-0.198
Mof_C 	C 	0.5762	0.0209	0.9127	0.014
Mof_C 	C 	0.4877	0.308	0.891	0.357
Mof_C 	C 	0.8064	0.5055	0.5081	0.011
Mof_C 	C 	0.9079	0.5337	0.5785	-0.08
Mof_C 	C 	0.8956	0.4724	0.4291	-0.126
Mof_C 	C 	0.7922	0.5708	0.66	0.342
Mof_C 	C 	0.778	0.4414	0.3554	0.411
Mof_C 	C 	0.512	0.8507	0.0532	-0.173
Mof_C 	C 	0.7014	0.7379	0.9297	0.553
Mof_C 	C 	0.5897	0.8727	0.9649	-0.198
Mof_C 	C 	0.4238	0.9791	0.0873	0.014
Mof_C 	C 	0.5123	0.692	0.109	0.357
Mof_O 	O 	0.2877	0.2936	0.34228	-0.421
Mof_O 	O 	0.2391	0.5378	0.2762	-0.709
Mof_O 	O 	0.1459	0.5918	0.71631	-0.75
Mof_O 	O 	0.398	0.5528	0.63079	-0.427
Mof_O 	O 	0.32	0.2701	0.15227	-0.705
Mof_O 	O 	0.1932	0.3544	0.01776	-1.062
Mof_O 	O 	0.5844	0.4044	0.91417	-0.642
Mof_O 	O 	0.3938	0.3426	0.81896	-0.642
Mof_O 	O 	0.7308	0.3438	0.0974	-0.632
Mof_O 	O 	0.7123	0.7064	0.65772	-0.421
Mof_O 	O 	0.7609	0.4622	0.7238	-0.709
Mof_O 	O 	0.8541	0.4082	0.28369	-0.75
Mof_O 	O 	0.602	0.4472	0.36921	-0.427
Mof_O 	O 	0.68	0.7299	0.84773	-0.705
Mof_O 	O 	0.8068	0.6456	0.98224	-1.062
Mof_O 	O 	0.4156	0.5956	0.08583	-0.642
Mof_O 	O 	0.6062	0.6574	0.18104	-0.642
Mof_O 	O 	0.2692	0.6562	0.9026	-0.632
_end
