data_functionalizedCrystal
_audit_creation_method	'EQeq! by Chris Wilmer'
_symmetry_space_group_name_H-M	'P1'
_symmetry_Int_Tables_number	1
_symmetry_cell_setting	triclinic
loop_
_symmetry_equiv_pos_as_xyz
  x,y,z
_cell_length_a	11.3768
_cell_length_b	12.6162
_cell_length_c	15.3401
_cell_angle_alpha	91.539
_cell_angle_beta	90
_cell_angle_gamma	90
loop_
_atom_site_label
_atom_site_type_symbol
_atom_site_fract_x
_atom_site_fract_y
_atom_site_fract_z
_atom_site_charge
Mof_Co	Co	0.90004	0.28766	0.77122	1.129
Mof_Co	Co	0.99803	0.50599	0.70758	1.145
Mof_Co	Co	0.40004	0.71234	0.72878	1.134
Mof_Co	Co	0.49803	0.49401	0.79242	1.127
Mof_Co	Co	0.09996	0.71234	0.22878	1.116
Mof_Co	Co	0.00197	0.49401	0.29242	1.103
Mof_Co	Co	0.59996	0.28766	0.27122	1.113
Mof_Co	Co	0.50197	0.50599	0.20758	1.124
Mof_Co	Co	-0	0	-0	0.958
Mof_Co	Co	0.5	0	0.5	0.998
Mof_H 	H 	0.074	0.32	0.064	0.03
Mof_H 	H 	0.574	0.68	0.436	0.048
Mof_H 	H 	0.926	0.68	0.936	0.052
Mof_H 	H 	0.426	0.32	0.564	0.033
Mof_C 	C 	0.1119	0.3179	0.92948	-0.066
Mof_C 	C 	0.1528	0.3789	0.86109	-0.063
Mof_C 	C 	0.1936	0.4825	0.87821	-0.127
Mof_C 	C 	0.189	0.5274	0.96226	0.048
Mof_C 	C 	0.1405	0.4674	0.02933	-0.155
Mof_C 	C 	0.1072	0.3632	0.01299	-0.005
Mof_C 	C 	0.0631	0.2083	0.91562	0.366
Mof_C 	C 	0.1521	0.3346	0.76873	0.315
Mof_C 	C 	0.2338	0.5492	0.8042	0.385
Mof_C 	C 	0.2333	0.64	0.9775	0.33
Mof_C 	C 	0.1088	0.5167	0.11586	0.397
Mof_C 	C 	0.6119	0.6821	0.57052	-0.1
Mof_C 	C 	0.6528	0.6211	0.63891	-0.041
Mof_C 	C 	0.6936	0.5175	0.62179	-0.121
Mof_C 	C 	0.689	0.4726	0.53774	0.013
Mof_C 	C 	0.6405	0.5326	0.47067	-0.106
Mof_C 	C 	0.6072	0.6368	0.48701	0.057
Mof_C 	C 	0.5631	0.7917	0.58438	0.371
Mof_C 	C 	0.6521	0.6654	0.73127	0.304
Mof_C 	C 	0.7338	0.4508	0.6958	0.384
Mof_C 	C 	0.7333	0.36	0.5225	0.289
Mof_C 	C 	0.6088	0.4833	0.38414	0.393
Mof_C 	C 	0.8881	0.6821	0.07052	-0.133
Mof_C 	C 	0.8472	0.6211	0.13891	-0.029
Mof_C 	C 	0.8064	0.5175	0.12179	-0.119
Mof_C 	C 	0.811	0.4726	0.03774	-0.011
Mof_C 	C 	0.8595	0.5326	0.97067	-0.073
Mof_C 	C 	0.8928	0.6368	0.98701	0.097
Mof_C 	C 	0.9369	0.7917	0.08438	0.379
Mof_C 	C 	0.8479	0.6654	0.23127	0.299
Mof_C 	C 	0.7662	0.4508	0.1958	0.385
Mof_C 	C 	0.7667	0.36	0.0225	0.244
Mof_C 	C 	0.8912	0.4833	0.88414	0.389
Mof_C 	C 	0.3881	0.3179	0.42948	-0.123
Mof_C 	C 	0.3472	0.3789	0.36109	-0.047
Mof_C 	C 	0.3064	0.4825	0.37821	-0.128
Mof_C 	C 	0.311	0.5274	0.46226	0.013
Mof_C 	C 	0.3595	0.4674	0.52933	-0.116
Mof_C 	C 	0.3928	0.3632	0.51299	0.059
Mof_C 	C 	0.4369	0.2083	0.41562	0.383
Mof_C 	C 	0.3479	0.3346	0.26873	0.31
Mof_C 	C 	0.2662	0.5492	0.3042	0.387
Mof_C 	C 	0.2667	0.64	0.4775	0.282
Mof_C 	C 	0.3912	0.5167	0.61586	0.392
Mof_O 	O 	0.07881	0.14565	0.97667	-0.485
Mof_O 	O 	0.00811	0.1852	0.84568	-0.504
Mof_O 	O 	0.05758	0.34849	0.72448	-0.563
Mof_O 	O 	0.24048	0.2891	0.74003	-0.302
Mof_O 	O 	0.1659	0.56497	0.7424	-0.469
Mof_O 	O 	0.33691	0.58893	0.81084	-0.535
Mof_O 	O 	0.18143	0.71278	0.93825	-0.268
Mof_O 	O 	0.32275	0.65348	0.02459	-0.324
Mof_O 	O 	0.07045	0.45653	0.17373	-0.469
Mof_O 	O 	0.11596	0.61612	0.1223	-0.473
Mof_O 	O 	0.57881	0.85435	0.52333	-0.419
Mof_O 	O 	0.50811	0.8148	0.65432	-0.432
Mof_O 	O 	0.55758	0.65151	0.77552	-0.519
Mof_O 	O 	0.74048	0.7109	0.75997	-0.25
Mof_O 	O 	0.6659	0.43503	0.7576	-0.464
Mof_O 	O 	0.83691	0.41107	0.68916	-0.538
Mof_O 	O 	0.68143	0.28722	0.56175	-0.297
Mof_O 	O 	0.82275	0.34652	0.47541	-0.291
Mof_O 	O 	0.57045	0.54347	0.32627	-0.445
Mof_O 	O 	0.61596	0.38388	0.3777	-0.45
Mof_O 	O 	0.92119	0.85435	0.02333	-0.42
Mof_O 	O 	0.99189	0.8148	0.15432	-0.415
Mof_O 	O 	0.94242	0.65151	0.27552	-0.495
Mof_O 	O 	0.75952	0.7109	0.25997	-0.257
Mof_O 	O 	0.8341	0.43503	0.2576	-0.452
Mof_O 	O 	0.66309	0.41107	0.18916	-0.55
Mof_O 	O 	0.81857	0.28722	0.06175	-0.288
Mof_O 	O 	0.67725	0.34652	0.97541	-0.258
Mof_O 	O 	0.92955	0.54347	0.82627	-0.43
Mof_O 	O 	0.88404	0.38388	0.8777	-0.429
Mof_O 	O 	0.42119	0.14565	0.47667	-0.515
Mof_O 	O 	0.49189	0.1852	0.34568	-0.501
Mof_O 	O 	0.44242	0.34849	0.22448	-0.545
Mof_O 	O 	0.25952	0.2891	0.24003	-0.312
Mof_O 	O 	0.3341	0.56497	0.2424	-0.459
Mof_O 	O 	0.16309	0.58893	0.31084	-0.548
Mof_O 	O 	0.31857	0.71278	0.43825	-0.263
Mof_O 	O 	0.17725	0.65348	0.52459	-0.286
Mof_O 	O 	0.42955	0.45653	0.67373	-0.452
Mof_O 	O 	0.38404	0.61612	0.6223	-0.446
_end
