data_functionalizedCrystal
_audit_creation_method	'EQeq! by Chris Wilmer'
_symmetry_space_group_name_H-M	'P1'
_symmetry_Int_Tables_number	1
_symmetry_cell_setting	triclinic
loop_
_symmetry_equiv_pos_as_xyz
  x,y,z
_cell_length_a	7.955
_cell_length_b	9.693
_cell_length_c	15.869
_cell_angle_alpha	90
_cell_angle_beta	90
_cell_angle_gamma	96.356
loop_
_atom_site_label
_atom_site_type_symbol
_atom_site_fract_x
_atom_site_fract_y
_atom_site_fract_z
_atom_site_charge
Mof_Gd	Gd	0.92145	0.13389	0.32692	1.532
Mof_Gd	Gd	0.57855	0.36611	0.82692	1.553
Mof_Gd	Gd	0.07855	0.86611	0.67308	1.532
Mof_Gd	Gd	0.42145	0.63389	0.17308	1.553
Mof_H 	H 	0.9686	0.68496	0.38791	0.065
Mof_H 	H 	0.61737	0.34707	0.25147	-0.029
Mof_H 	H 	0.5314	0.81504	0.88791	0.061
Mof_H 	H 	0.88263	0.15293	0.75147	-0.029
Mof_H 	H 	0.0314	0.31504	0.61209	0.065
Mof_H 	H 	0.38263	0.65293	0.74853	-0.029
Mof_H 	H 	0.4686	0.18496	0.11209	0.061
Mof_H 	H 	0.11737	0.84707	0.24853	-0.029
Mof_C 	C 	0.9139	0.4745	0.36817	-0.003
Mof_C 	C 	0.7438	0.7958	0.284	0.387
Mof_C 	C 	0.8961	0.6152	0.35887	-0.031
Mof_C 	C 	0.7696	0.6478	0.30604	-0.041
Mof_C 	C 	0.057	0.4236	0.41852	0.322
Mof_C 	C 	0.6902	0.4187	0.2799	0.126
Mof_C 	C 	0.9099	0.0093	0.51549	0.261
Mof_C 	C 	0.5861	0.0255	0.86817	-0.007
Mof_C 	C 	0.7562	0.7042	0.784	0.388
Mof_C 	C 	0.6039	0.8848	0.85887	-0.025
Mof_C 	C 	0.7304	0.8522	0.80604	-0.042
Mof_C 	C 	0.443	0.0764	0.91852	0.326
Mof_C 	C 	0.8098	0.0813	0.7799	0.118
Mof_C 	C 	0.5901	0.4907	0.01549	0.271
Mof_C 	C 	0.0861	0.5255	0.63183	-0.003
Mof_C 	C 	0.2562	0.2042	0.716	0.387
Mof_C 	C 	0.1039	0.3848	0.64113	-0.031
Mof_C 	C 	0.2304	0.3522	0.69396	-0.041
Mof_C 	C 	0.943	0.5764	0.58148	0.322
Mof_C 	C 	0.3098	0.5813	0.7201	0.126
Mof_C 	C 	0.0901	0.9907	0.48451	0.261
Mof_C 	C 	0.4139	0.9745	0.13183	-0.007
Mof_C 	C 	0.2438	0.2958	0.216	0.388
Mof_C 	C 	0.3961	0.1152	0.14113	-0.025
Mof_C 	C 	0.2696	0.1478	0.19396	-0.042
Mof_C 	C 	0.557	0.9236	0.08148	0.326
Mof_C 	C 	0.1902	0.9187	0.2201	0.118
Mof_C 	C 	0.4099	0.5093	0.98451	0.271
Mof_N 	N 	0.8116	0.377	0.3285	-0.207
Mof_N 	N 	0.6639	0.55	0.2669	-0.189
Mof_N 	N 	0.6884	0.123	0.8285	-0.206
Mof_N 	N 	0.8361	0.95	0.7669	-0.182
Mof_N 	N 	0.1884	0.623	0.6715	-0.207
Mof_N 	N 	0.3361	0.45	0.7331	-0.189
Mof_N 	N 	0.3116	0.877	0.1715	-0.206
Mof_N 	N 	0.1639	0.05	0.2331	-0.182
Mof_O 	O 	0.0483	0.2942	0.42928	-0.367
Mof_O 	O 	0.8509	0.8895	0.31083	-0.434
Mof_O 	O 	0.812	0.0565	0.46417	-0.363
Mof_O 	O 	0.6192	0.813	0.239	-0.435
Mof_O 	O 	0.8749	0.9764	0.59018	-0.342
Mof_O 	O 	0.1719	0.5116	0.44286	-0.256
Mof_O 	O 	0.4517	0.2058	0.92928	-0.373
Mof_O 	O 	0.6491	0.6105	0.81083	-0.439
Mof_O 	O 	0.688	0.4435	0.96417	-0.364
Mof_O 	O 	0.8808	0.687	0.739	-0.432
Mof_O 	O 	0.6251	0.5236	0.09018	-0.354
Mof_O 	O 	0.3281	0.9884	0.94286	-0.26
Mof_O 	O 	0.9517	0.7058	0.57072	-0.367
Mof_O 	O 	0.1491	0.1105	0.68917	-0.434
Mof_O 	O 	0.188	0.9435	0.53583	-0.363
Mof_O 	O 	0.3808	0.187	0.761	-0.435
Mof_O 	O 	0.1251	0.0236	0.40982	-0.342
Mof_O 	O 	0.8281	0.4884	0.55714	-0.256
Mof_O 	O 	0.5483	0.7942	0.07072	-0.373
Mof_O 	O 	0.3509	0.3895	0.18917	-0.439
Mof_O 	O 	0.312	0.5565	0.03583	-0.364
Mof_O 	O 	0.1192	0.313	0.261	-0.432
Mof_O 	O 	0.3749	0.4764	0.90982	-0.354
Mof_O 	O 	0.6719	0.0116	0.05714	-0.26
_end
