data_functionalizedCrystal
_audit_creation_method	'EQeq! by Chris Wilmer'
_symmetry_space_group_name_H-M	'P1'
_symmetry_Int_Tables_number	1
_symmetry_cell_setting	triclinic
loop_
_symmetry_equiv_pos_as_xyz
  x,y,z
_cell_length_a	17.41
_cell_length_b	6.7444
_cell_length_c	12.1646
_cell_angle_alpha	90
_cell_angle_beta	90
_cell_angle_gamma	90
loop_
_atom_site_label
_atom_site_type_symbol
_atom_site_fract_x
_atom_site_fract_y
_atom_site_fract_z
_atom_site_charge
Mof_O 	O 	0.07387	0.91692	0.8861	1.914
Mof_O 	O 	0.4109	0.9168	0.58881	-14.992
Mof_C 	C 	0.27375	0.9281	0.7017	8.531
Mof_H 	H 	0.2965	0.0476	0.6818	-5.465
Mof_C 	C 	0.20571	0.928	0.7606	-1.154
Mof_H 	H 	0.1828	0.0475	0.7802	-1.423
Mof_O 	O 	0.42613	0.08308	0.3861	-16.161
Mof_O 	O 	0.0891	0.0832	0.08881	-0.128
Mof_C 	C 	0.22625	0.0719	0.2017	-6.371
Mof_H 	H 	0.2035	0.9524	0.1818	3.66
Mof_C 	C 	0.29429	0.072	0.2606	0.746
Mof_H 	H 	0.3172	0.9525	0.2802	1.019
Mof_O 	O 	0.92613	0.41692	0.1139	-0.453
Mof_O 	O 	0.5891	0.4168	0.41119	-17.781
Mof_C 	C 	0.72625	0.4281	0.2983	4.937
Mof_H 	H 	0.7035	0.5476	0.3182	-2.388
Mof_C 	C 	0.79429	0.428	0.2394	-4.376
Mof_H 	H 	0.8172	0.5475	0.2198	1.508
Mof_O 	O 	0.57387	0.58308	0.6139	-16.841
Mof_O 	O 	0.9109	0.5832	0.91119	-0.864
Mof_C 	C 	0.77375	0.5719	0.7983	-3.167
Mof_H 	H 	0.7965	0.4524	0.8182	0.784
Mof_C 	C 	0.70571	0.572	0.7394	4.381
Mof_H 	H 	0.6828	0.4525	0.7198	-2.041
Mof_O 	O 	0.92613	0.08308	0.1139	-0.055
Mof_O 	O 	0.5891	0.0832	0.41119	-17.308
Mof_C 	C 	0.72625	0.0719	0.2983	1.881
Mof_H 	H 	0.7035	0.9524	0.3182	0.159
Mof_C 	C 	0.79429	0.072	0.2394	-7.228
Mof_H 	H 	0.8172	0.9525	0.2198	3.936
Mof_O 	O 	0.57387	0.91692	0.6139	-13.863
Mof_O 	O 	0.9109	0.9168	0.91119	1.877
Mof_C 	C 	0.77375	0.9281	0.7983	-0.286
Mof_H 	H 	0.7965	0.0476	0.8182	-1.709
Mof_C 	C 	0.70571	0.928	0.7394	7.425
Mof_H 	H 	0.6828	0.0475	0.7198	-4.625
Mof_O 	O 	0.07387	0.58308	0.8861	-0.822
Mof_O 	O 	0.4109	0.5832	0.58881	-17.966
Mof_C 	C 	0.27375	0.5719	0.7017	5.49
Mof_H 	H 	0.2965	0.4524	0.6818	-2.884
Mof_C 	C 	0.20571	0.572	0.7606	-4.017
Mof_H 	H 	0.1828	0.4525	0.7802	1.057
Mof_O 	O 	0.42613	0.41692	0.3861	-16.633
Mof_O 	O 	0.0891	0.4168	0.08881	-0.531
Mof_C 	C 	0.22625	0.4281	0.2017	-3.515
Mof_H 	H 	0.2035	0.5476	0.1818	1.229
Mof_C 	C 	0.29429	0.428	0.2606	3.809
Mof_H 	H 	0.3172	0.5475	0.2802	-1.534
Mof_Ga	Ga	-0	0	-0	-5.721
Mof_Ga	Ga	0.5	0	0.5	82.702
Mof_Ga	Ga	-0	0.5	-0	4.399
Mof_Ga	Ga	0.5	0.5	0.5	93.797
Mof_O 	O 	0.00563	0.75	0.0713	0.639
Mof_H 	H 	0.018	0.75	0.114	0.213
Mof_C 	C 	0.38288	0.75	0.6112	13.302
Mof_C 	C 	0.30796	0.75	0.6724	-8.152
Mof_C 	C 	0.17169	0.75	0.7903	1.925
Mof_C 	C 	0.10046	0.75	0.86	-0.53
Mof_O 	O 	0.49437	0.25	0.5713	-104.007
Mof_H 	H 	0.482	0.25	0.614	67.339
Mof_C 	C 	0.11712	0.25	0.1112	-1.003
Mof_C 	C 	0.19204	0.25	0.1724	2.873
Mof_C 	C 	0.32831	0.25	0.2903	-5.061
Mof_C 	C 	0.39954	0.25	0.36	11.055
Mof_O 	O 	0.99437	0.25	0.9287	-1.354
Mof_H 	H 	0.982	0.25	0.886	0.555
Mof_C 	C 	0.61712	0.25	0.3888	12.557
Mof_C 	C 	0.69204	0.25	0.3276	-6.376
Mof_C 	C 	0.82831	0.25	0.2097	3.514
Mof_C 	C 	0.89954	0.25	0.14	-1.222
Mof_O 	O 	0.50563	0.75	0.4287	-102.67
Mof_H 	H 	0.518	0.75	0.386	67.529
Mof_C 	C 	0.88288	0.75	0.8888	-0.32
Mof_C 	C 	0.80796	0.75	0.8276	1.295
Mof_C 	C 	0.67169	0.75	0.7097	-6.863
Mof_C 	C 	0.60046	0.75	0.64	11.823
_end
