# CIF file generated by openbabel 3.1.0, see https://openbabel.org
data_I
_chemical_name_common 'JIQVAH_clean'
_cell_length_a 8.68
_cell_length_b 11.0863
_cell_length_c 25.0903
_cell_angle_alpha 90
_cell_angle_beta 90
_cell_angle_gamma 101.55
_space_group_name_H-M_alt 'P 1'
_space_group_name_Hall 'P 1'
loop_
    _symmetry_equiv_pos_as_xyz
    x,y,z
loop_
    _atom_site_label
    _atom_site_type_symbol
    _atom_site_fract_x
    _atom_site_fract_y
    _atom_site_fract_z
    _atom_site_occupancy
    Yb1      Yb       0.80809    0.85878    0.59485    1.000
    Yb2      Yb       0.19191    0.14122    0.09485    1.000
    Yb3      Yb       0.19191    0.14122    0.40515    1.000
    Yb4      Yb       0.80809    0.85878    0.90515    1.000
    H1       H        0.06920    0.51430    0.62390    1.000
    H2       H        0.19420    0.38180    0.57800    1.000
    H3       H        0.53810    0.01910    0.70420    1.000
    H4       H        0.93080    0.48570    0.12390    1.000
    H5       H        0.80580    0.61820    0.07800    1.000
    H6       H        0.46190    0.98090    0.20420    1.000
    H7       H        0.93080    0.48570    0.37610    1.000
    H8       H        0.80580    0.61820    0.42200    1.000
    H9       H        0.46190    0.98090    0.29580    1.000
    H10      H        0.06920    0.51430    0.87610    1.000
    H11      H        0.19420    0.38180    0.92200    1.000
    H12      H        0.53810    0.01910    0.79580    1.000
    Ru1      Ru       0.38786    0.16443    0.61099    1.000
    Ru2      Ru       0.61214    0.83557    0.11099    1.000
    Ru3      Ru       0.61214    0.83557    0.38901    1.000
    Ru4      Ru       0.38786    0.16443    0.88901    1.000
    Ru5      Ru       0.01155    0.57290    0.75000    1.000
    Ru6      Ru       0.98845    0.42710    0.25000    1.000
    C1       C        0.26390    0.30430    0.69390    1.000
    C2       C        0.18950    0.38490    0.72160    1.000
    C3       C        0.11890    0.46140    0.64320    1.000
    C4       C        0.19420    0.37960    0.61500    1.000
    C5       C        0.48630    0.07260    0.72210    1.000
    C6       C        0.34320    0.22240    0.72230    1.000
    C7       C        0.19230    0.03260    0.61320    1.000
    C8       C        0.51330    0.03860    0.59640    1.000
    C9       C        0.65780    0.81390    0.46580    1.000
    C10      C        0.58950    0.29060    0.60020    1.000
    C11      C        0.92620    0.66690    0.69330    1.000
    C12      C        0.73610    0.69570    0.19390    1.000
    C13      C        0.81050    0.61510    0.22160    1.000
    C14      C        0.88110    0.53860    0.14320    1.000
    C15      C        0.80580    0.62040    0.11500    1.000
    C16      C        0.51370    0.92740    0.22210    1.000
    C17      C        0.65680    0.77760    0.22230    1.000
    C18      C        0.80770    0.96740    0.11320    1.000
    C19      C        0.48670    0.96140    0.09640    1.000
    C20      C        0.34220    0.18610    0.96580    1.000
    C21      C        0.41050    0.70940    0.10020    1.000
    C22      C        0.07380    0.33310    0.19330    1.000
    C23      C        0.73610    0.69570    0.30610    1.000
    C24      C        0.81050    0.61510    0.27840    1.000
    C25      C        0.88110    0.53860    0.35680    1.000
    C26      C        0.80580    0.62040    0.38500    1.000
    C27      C        0.51370    0.92740    0.27790    1.000
    C28      C        0.65680    0.77760    0.27770    1.000
    C29      C        0.80770    0.96740    0.38680    1.000
    C30      C        0.48670    0.96140    0.40360    1.000
    C31      C        0.34220    0.18610    0.53420    1.000
    C32      C        0.41050    0.70940    0.39980    1.000
    C33      C        0.07380    0.33310    0.30670    1.000
    C34      C        0.26390    0.30430    0.80610    1.000
    C35      C        0.18950    0.38490    0.77840    1.000
    C36      C        0.11890    0.46140    0.85680    1.000
    C37      C        0.19420    0.37960    0.88500    1.000
    C38      C        0.48630    0.07260    0.77790    1.000
    C39      C        0.34320    0.22240    0.77770    1.000
    C40      C        0.19230    0.03260    0.88680    1.000
    C41      C        0.51330    0.03860    0.90360    1.000
    C42      C        0.65780    0.81390    0.03420    1.000
    C43      C        0.58950    0.29060    0.89980    1.000
    C44      C        0.92620    0.66690    0.80670    1.000
    C45      C        0.82010    0.43810    0.75000    1.000
    C46      C        0.20160    0.70820    0.75000    1.000
    C47      C        0.17990    0.56190    0.25000    1.000
    C48      C        0.79840    0.29180    0.25000    1.000
    N1       N        0.26540    0.29900    0.63960    1.000
    N2       N        0.11580    0.46600    0.69550    1.000
    N3       N        0.41420    0.14720    0.69390    1.000
    N4       N        0.07950    0.95390    0.61200    1.000
    N5       N        0.59240    0.96570    0.59130    1.000
    N6       N        0.68640    0.80380    0.51000    1.000
    N7       N        0.70570    0.35740    0.59010    1.000
    N8       N        0.88180    0.71990    0.65920    1.000
    N9       N        0.73460    0.70100    0.13960    1.000
    N10      N        0.88420    0.53400    0.19550    1.000
    N11      N        0.58580    0.85280    0.19390    1.000
    N12      N        0.92050    0.04610    0.11200    1.000
    N13      N        0.40760    0.03430    0.09130    1.000
    N14      N        0.31360    0.19620    0.01000    1.000
    N15      N        0.29430    0.64260    0.09010    1.000
    N16      N        0.11820    0.28010    0.15920    1.000
    N17      N        0.73460    0.70100    0.36040    1.000
    N18      N        0.88420    0.53400    0.30450    1.000
    N19      N        0.58580    0.85280    0.30610    1.000
    N20      N        0.92050    0.04610    0.38800    1.000
    N21      N        0.40760    0.03430    0.40870    1.000
    N22      N        0.31360    0.19620    0.49000    1.000
    N23      N        0.29430    0.64260    0.40990    1.000
    N24      N        0.11820    0.28010    0.34080    1.000
    N25      N        0.26540    0.29900    0.86040    1.000
    N26      N        0.11580    0.46600    0.80450    1.000
    N27      N        0.41420    0.14720    0.80610    1.000
    N28      N        0.07950    0.95390    0.88800    1.000
    N29      N        0.59240    0.96570    0.90870    1.000
    N30      N        0.68640    0.80380    0.99000    1.000
    N31      N        0.70570    0.35740    0.90990    1.000
    N32      N        0.88180    0.71990    0.84080    1.000
    N33      N        0.71290    0.35790    0.75000    1.000
    N34      N        0.31000    0.79150    0.75000    1.000
    N35      N        0.28710    0.64210    0.25000    1.000
    N36      N        0.69000    0.20850    0.25000    1.000
