# CIF file generated by openbabel 3.1.0, see https://openbabel.org
data_I
_chemical_name_common 'image0'
_cell_length_a 21.8567
_cell_length_b 11.5525
_cell_length_c 21.4604
_cell_angle_alpha 90
_cell_angle_beta 117.611
_cell_angle_gamma 90
_space_group_name_H-M_alt 'P 1'
_space_group_name_Hall 'P 1'
loop_
    _symmetry_equiv_pos_as_xyz
    x,y,z
loop_
    _atom_site_label
    _atom_site_type_symbol
    _atom_site_fract_x
    _atom_site_fract_y
    _atom_site_fract_z
    _atom_site_occupancy
    Cu1      Cu       0.74493    0.32630    0.41940    1.000
    Cu2      Cu       0.75677    0.30125    0.60247    1.000
    N1       N        0.79112    0.45610    0.48675    1.000
    N2       N        0.78699    0.46706    0.54803    1.000
    N3       N        0.84907    0.61079    0.53973    1.000
    N4       N        0.79626    0.20053    0.49529    1.000
    N5       N        0.78872    0.18071    0.55490    1.000
    N6       N        0.84942    0.03911    0.54394    1.000
    N7       N        0.14259    0.81029    0.82263    1.000
    N8       N        0.09019    0.81990    0.84177    1.000
    N9       N        0.04440    0.82214    0.72592    1.000
    N10      N        0.97355    0.82778    0.52902    1.000
    N11      N        0.65948    0.29143    0.45152    1.000
    N12      N        0.66216    0.29370    0.51753    1.000
    N13      N        0.55565    0.25648    0.43952    1.000
    N14      N        0.31238    0.94719    0.15110    1.000
    N15      N        0.36167    0.00560    0.14051    1.000
    N16      N        0.36462    0.06625    0.23905    1.000
    N17      N        0.27328    0.57805    0.35149    1.000
    N18      N        0.24677    0.56360    0.27962    1.000
    N19      N        0.32019    0.42311    0.33558    1.000
    N20      N        0.38853    0.13222    0.42148    1.000
    C1       C        0.82733    0.54220    0.48172    1.000
    H1       H        0.83690    0.55490    0.44390    1.000
    C2       C        0.82225    0.56060    0.57948    1.000
    H2       H        0.82820    0.58880    0.62300    1.000
    C3       C        0.89245    0.71690    0.55734    1.000
    C4       C        0.84571    0.82480    0.54238    1.000
    H3       H        0.81060    0.82590    0.49290    1.000
    H4       H        0.82230    0.82360    0.57180    1.000
    C5       C        0.89246    0.93260    0.55935    1.000
    C6       C        0.94637    0.93310    0.63702    1.000
    H5       H        0.92340    0.93260    0.66690    1.000
    H6       H        0.97500    0.00290    0.64770    1.000
    C7       C        0.99190    0.82380    0.65130    1.000
    C8       C        0.94693    0.71360    0.63556    1.000
    H7       H        0.97580    0.64430    0.64500    1.000
    H8       H        0.92410    0.71130    0.66550    1.000
    C9       C        0.93025    0.72260    0.51170    1.000
    H9       H        0.95930    0.65380    0.52030    1.000
    H10      H        0.89630    0.72370    0.46180    1.000
    C10      C        0.92880    0.93140    0.51279    1.000
    H11      H        0.89430    0.93030    0.46310    1.000
    H12      H        0.95680    0.00150    0.52130    1.000
    C11      C        0.02636    0.82710    0.60304    1.000
    H13      H        0.05510    0.89670    0.61310    1.000
    H14      H        0.05620    0.75930    0.61210    1.000
    C12      C        0.82089    0.08380    0.58321    1.000
    H15      H        0.82380    0.05030    0.62440    1.000
    C13      C        0.83244    0.11530    0.48987    1.000
    H16      H        0.84510    0.10730    0.45380    1.000
    C14      C        0.11368    0.81150    0.75369    1.000
    H17      H        0.13790    0.80580    0.72720    1.000
    C15      C        0.03266    0.82670    0.78314    1.000
    H18      H        0.98870    0.83380    0.78060    1.000
    C16      C        0.59554    0.26880    0.40606    1.000
    H19      H        0.57920    0.26190    0.35730    1.000
    C17      C        0.59944    0.27340    0.50877    1.000
    H20      H        0.58680    0.27100    0.54510    1.000
    C18      C        0.48039    0.23210    0.40544    1.000
    C19      C        0.46091    0.16270    0.33755    1.000
    H21      H        0.47060    0.20850    0.30470    1.000
    H22      H        0.48810    0.09130    0.34840    1.000
    C20      C        0.38378    0.13400    0.30450    1.000
    C21      C        0.34073    0.24600    0.28464    1.000
    H23      H        0.29140    0.22760    0.26280    1.000
    H24      H        0.34980    0.29130    0.25120    1.000
    C22      C        0.36200    0.31520    0.35307    1.000
    C23      C        0.43916    0.34630    0.38785    1.000
    H25      H        0.45170    0.39110    0.43090    1.000
    H26      H        0.44940    0.39300    0.35570    1.000
    C24      C        0.46286    0.15920    0.45544    1.000
    H27      H        0.48960    0.08720    0.46750    1.000
    H28      H        0.47540    0.20240    0.49900    1.000
    C25      C        0.36852    0.06370    0.35641    1.000
    H29      H        0.31920    0.04500    0.33500    1.000
    H30      H        0.39450    0.99100    0.36780    1.000
    C26      C        0.34738    0.24050    0.40444    1.000
    H31      H        0.35930    0.28420    0.44770    1.000
    H32      H        0.29810    0.22160    0.38300    1.000
    C27      C        0.31495    0.98490    0.20956    1.000
    H33      H        0.28630    0.95900    0.22850    1.000
    C28      C        0.39180    0.07620    0.19390    1.000
    H34      H        0.42770    0.12720    0.20020    1.000
    C29      C        0.31715    0.49510    0.38386    1.000
    H35      H        0.34260    0.48670    0.43290    1.000
    C30      C        0.27617    0.46960    0.27235    1.000
    H36      H        0.26780    0.43800    0.22870    1.000
    Cu3      Cu       0.25507    0.82630    0.08060    1.000
    Cu4      Cu       0.24323    0.80125    0.89753    1.000
    N21      N        0.20888    0.95610    0.01325    1.000
    N22      N        0.21301    0.96706    0.95197    1.000
    N23      N        0.15093    0.11079    0.96027    1.000
    N24      N        0.20374    0.70053    0.00471    1.000
    N25      N        0.21128    0.68071    0.94510    1.000
    N26      N        0.15058    0.53911    0.95606    1.000
    N27      N        0.85741    0.31029    0.67737    1.000
    N28      N        0.90981    0.31990    0.65823    1.000
    N29      N        0.95560    0.32214    0.77408    1.000
    N30      N        0.02645    0.32778    0.97098    1.000
    N31      N        0.34052    0.79143    0.04848    1.000
    N32      N        0.33784    0.79370    0.98247    1.000
    N33      N        0.44435    0.75648    0.06048    1.000
    N34      N        0.68762    0.44719    0.34890    1.000
    N35      N        0.63833    0.50560    0.35949    1.000
    N36      N        0.63538    0.56625    0.26095    1.000
    N37      N        0.72672    0.07805    0.14851    1.000
    N38      N        0.75323    0.06360    0.22038    1.000
    N39      N        0.67981    0.92311    0.16442    1.000
    N40      N        0.61147    0.63222    0.07852    1.000
    C31      C        0.17267    0.04220    0.01828    1.000
    H37      H        0.16310    0.05490    0.05610    1.000
    C32      C        0.17775    0.06060    0.92052    1.000
    H38      H        0.17180    0.08880    0.87700    1.000
    C33      C        0.10755    0.21690    0.94266    1.000
    C34      C        0.15429    0.32480    0.95762    1.000
    H39      H        0.18940    0.32590    0.00710    1.000
    H40      H        0.17770    0.32360    0.92820    1.000
    C35      C        0.10754    0.43260    0.94065    1.000
    C36      C        0.05363    0.43310    0.86298    1.000
    H41      H        0.07660    0.43260    0.83310    1.000
    H42      H        0.02500    0.50290    0.85230    1.000
    C37      C        0.00810    0.32380    0.84870    1.000
    C38      C        0.05307    0.21360    0.86444    1.000
    H43      H        0.02420    0.14430    0.85500    1.000
    H44      H        0.07590    0.21130    0.83450    1.000
    C39      C        0.06975    0.22260    0.98830    1.000
    H45      H        0.04070    0.15380    0.97970    1.000
    H46      H        0.10370    0.22370    0.03820    1.000
    C40      C        0.07120    0.43140    0.98721    1.000
    H47      H        0.10570    0.43030    0.03690    1.000
    H48      H        0.04320    0.50150    0.97870    1.000
    C41      C        0.97364    0.32710    0.89696    1.000
    H49      H        0.94490    0.39670    0.88690    1.000
    H50      H        0.94380    0.25930    0.88790    1.000
    C42      C        0.17911    0.58380    0.91679    1.000
    H51      H        0.17620    0.55030    0.87560    1.000
    C43      C        0.16756    0.61530    0.01013    1.000
    H52      H        0.15490    0.60730    0.04620    1.000
    C44      C        0.88632    0.31150    0.74631    1.000
    H53      H        0.86210    0.30580    0.77280    1.000
    C45      C        0.96734    0.32670    0.71686    1.000
    H54      H        0.01130    0.33380    0.71940    1.000
    C46      C        0.40446    0.76880    0.09394    1.000
    H55      H        0.42080    0.76190    0.14270    1.000
    C47      C        0.40056    0.77340    0.99123    1.000
    H56      H        0.41320    0.77100    0.95490    1.000
    C48      C        0.51961    0.73210    0.09456    1.000
    C49      C        0.53909    0.66270    0.16245    1.000
    H57      H        0.52940    0.70850    0.19530    1.000
    H58      H        0.51190    0.59130    0.15160    1.000
    C50      C        0.61622    0.63400    0.19550    1.000
    C51      C        0.65927    0.74600    0.21536    1.000
    H59      H        0.70860    0.72760    0.23720    1.000
    H60      H        0.65020    0.79130    0.24880    1.000
    C52      C        0.63800    0.81520    0.14693    1.000
    C53      C        0.56084    0.84630    0.11215    1.000
    H61      H        0.54830    0.89110    0.06910    1.000
    H62      H        0.55060    0.89300    0.14430    1.000
    C54      C        0.53714    0.65920    0.04456    1.000
    H63      H        0.51040    0.58720    0.03250    1.000
    H64      H        0.52460    0.70240    0.00100    1.000
    C55      C        0.63148    0.56370    0.14359    1.000
    H65      H        0.68080    0.54500    0.16500    1.000
    H66      H        0.60550    0.49100    0.13220    1.000
    C56      C        0.65262    0.74050    0.09556    1.000
    H67      H        0.64070    0.78420    0.05230    1.000
    H68      H        0.70190    0.72160    0.11700    1.000
    C57      C        0.68505    0.48490    0.29044    1.000
    H69      H        0.71370    0.45900    0.27150    1.000
    C58      C        0.60820    0.57620    0.30610    1.000
    H70      H        0.57230    0.62720    0.29980    1.000
    C59      C        0.68285    0.99510    0.11614    1.000
    H71      H        0.65740    0.98670    0.06710    1.000
    C60      C        0.72383    0.96960    0.22765    1.000
    H72      H        0.73220    0.93800    0.27130    1.000
    Cu5      Cu       0.25507    0.67370    0.58060    1.000
    Cu6      Cu       0.24323    0.69875    0.39753    1.000
    N41      N        0.20888    0.54390    0.51325    1.000
    N42      N        0.21301    0.53294    0.45197    1.000
    N43      N        0.15093    0.38921    0.46027    1.000
    N44      N        0.20374    0.79947    0.50471    1.000
    N45      N        0.21128    0.81929    0.44510    1.000
    N46      N        0.15058    0.96089    0.45606    1.000
    N47      N        0.85741    0.18971    0.17737    1.000
    N48      N        0.90981    0.18010    0.15823    1.000
    N49      N        0.95560    0.17786    0.27408    1.000
    N50      N        0.02645    0.17222    0.47098    1.000
    N51      N        0.34052    0.70857    0.54848    1.000
    N52      N        0.33784    0.70630    0.48247    1.000
    N53      N        0.44435    0.74352    0.56048    1.000
    N54      N        0.68762    0.05281    0.84890    1.000
    N55      N        0.63833    0.99440    0.85949    1.000
    N56      N        0.63538    0.93375    0.76095    1.000
    N57      N        0.72672    0.42195    0.64851    1.000
    N58      N        0.75323    0.43640    0.72038    1.000
    N59      N        0.67981    0.57689    0.66442    1.000
    N60      N        0.61147    0.86778    0.57852    1.000
    C61      C        0.17267    0.45780    0.51828    1.000
    H73      H        0.16310    0.44510    0.55610    1.000
    C62      C        0.17775    0.43940    0.42052    1.000
    H74      H        0.17180    0.41120    0.37700    1.000
    C63      C        0.10755    0.28310    0.44266    1.000
    C64      C        0.15429    0.17520    0.45762    1.000
    H75      H        0.18940    0.17410    0.50710    1.000
    H76      H        0.17770    0.17640    0.42820    1.000
    C65      C        0.10754    0.06740    0.44065    1.000
    C66      C        0.05363    0.06690    0.36298    1.000
    H77      H        0.07660    0.06740    0.33310    1.000
    H78      H        0.02500    0.99710    0.35230    1.000
    C67      C        0.00810    0.17620    0.34870    1.000
    C68      C        0.05307    0.28640    0.36444    1.000
    H79      H        0.02420    0.35570    0.35500    1.000
    H80      H        0.07590    0.28870    0.33450    1.000
    C69      C        0.06975    0.27740    0.48830    1.000
    H81      H        0.04070    0.34620    0.47970    1.000
    H82      H        0.10370    0.27630    0.53820    1.000
    C70      C        0.07120    0.06860    0.48721    1.000
    H83      H        0.10570    0.06970    0.53690    1.000
    H84      H        0.04320    0.99850    0.47870    1.000
    C71      C        0.97364    0.17290    0.39696    1.000
    H85      H        0.94490    0.10330    0.38690    1.000
    H86      H        0.94380    0.24070    0.38790    1.000
    C72      C        0.17911    0.91620    0.41679    1.000
    H87      H        0.17620    0.94970    0.37560    1.000
    C73      C        0.16756    0.88470    0.51013    1.000
    H88      H        0.15490    0.89270    0.54620    1.000
    C74      C        0.88632    0.18850    0.24631    1.000
    H89      H        0.86210    0.19420    0.27280    1.000
    C75      C        0.96734    0.17330    0.21686    1.000
    H90      H        0.01130    0.16620    0.21940    1.000
    C76      C        0.40446    0.73120    0.59394    1.000
    H91      H        0.42080    0.73810    0.64270    1.000
    C77      C        0.40056    0.72660    0.49123    1.000
    H92      H        0.41320    0.72900    0.45490    1.000
    C78      C        0.51961    0.76790    0.59456    1.000
    C79      C        0.53909    0.83730    0.66245    1.000
    H93      H        0.52940    0.79150    0.69530    1.000
    H94      H        0.51190    0.90870    0.65160    1.000
    C80      C        0.61622    0.86600    0.69550    1.000
    C81      C        0.65927    0.75400    0.71536    1.000
    H95      H        0.70860    0.77240    0.73720    1.000
    H96      H        0.65020    0.70870    0.74880    1.000
    C82      C        0.63800    0.68480    0.64693    1.000
    C83      C        0.56084    0.65370    0.61215    1.000
    H97      H        0.54830    0.60890    0.56910    1.000
    H98      H        0.55060    0.60700    0.64430    1.000
    C84      C        0.53714    0.84080    0.54456    1.000
    H99      H        0.51040    0.91280    0.53250    1.000
    H100     H        0.52460    0.79760    0.50100    1.000
    C85      C        0.63148    0.93630    0.64359    1.000
    H101     H        0.68080    0.95500    0.66500    1.000
    H102     H        0.60550    0.00900    0.63220    1.000
    C86      C        0.65262    0.75950    0.59556    1.000
    H103     H        0.64070    0.71580    0.55230    1.000
    H104     H        0.70190    0.77840    0.61700    1.000
    C87      C        0.68505    0.01510    0.79044    1.000
    H105     H        0.71370    0.04100    0.77150    1.000
    C88      C        0.60820    0.92380    0.80610    1.000
    H106     H        0.57230    0.87280    0.79980    1.000
    C89      C        0.68285    0.50490    0.61614    1.000
    H107     H        0.65740    0.51330    0.56710    1.000
    C90      C        0.72383    0.53040    0.72765    1.000
    H108     H        0.73220    0.56200    0.77130    1.000
    Cu7      Cu       0.74493    0.17370    0.91940    1.000
    Cu8      Cu       0.75677    0.19875    0.10247    1.000
    N61      N        0.79112    0.04390    0.98675    1.000
    N62      N        0.78699    0.03294    0.04803    1.000
    N63      N        0.84907    0.88921    0.03973    1.000
    N64      N        0.79626    0.29947    0.99529    1.000
    N65      N        0.78872    0.31929    0.05490    1.000
    N66      N        0.84942    0.46089    0.04394    1.000
    N67      N        0.14259    0.68971    0.32263    1.000
    N68      N        0.09019    0.68010    0.34177    1.000
    N69      N        0.04440    0.67786    0.22592    1.000
    N70      N        0.97355    0.67222    0.02902    1.000
    N71      N        0.65948    0.20857    0.95152    1.000
    N72      N        0.66216    0.20630    0.01753    1.000
    N73      N        0.55565    0.24352    0.93952    1.000
    N74      N        0.31238    0.55281    0.65110    1.000
    N75      N        0.36167    0.49440    0.64051    1.000
    N76      N        0.36462    0.43375    0.73905    1.000
    N77      N        0.27328    0.92195    0.85149    1.000
    N78      N        0.24677    0.93640    0.77962    1.000
    N79      N        0.32019    0.07689    0.83558    1.000
    N80      N        0.38853    0.36778    0.92148    1.000
    C91      C        0.82733    0.95780    0.98172    1.000
    H109     H        0.83690    0.94510    0.94390    1.000
    C92      C        0.82225    0.93940    0.07948    1.000
    H110     H        0.82820    0.91120    0.12300    1.000
    C93      C        0.89245    0.78310    0.05734    1.000
    C94      C        0.84571    0.67520    0.04238    1.000
    H111     H        0.81060    0.67410    0.99290    1.000
    H112     H        0.82230    0.67640    0.07180    1.000
    C95      C        0.89246    0.56740    0.05935    1.000
    C96      C        0.94637    0.56690    0.13702    1.000
    H113     H        0.92340    0.56740    0.16690    1.000
    H114     H        0.97500    0.49710    0.14770    1.000
    C97      C        0.99190    0.67620    0.15130    1.000
    C98      C        0.94693    0.78640    0.13556    1.000
    H115     H        0.97580    0.85570    0.14500    1.000
    H116     H        0.92410    0.78870    0.16550    1.000
    C99      C        0.93025    0.77740    0.01170    1.000
    H117     H        0.95930    0.84620    0.02030    1.000
    H118     H        0.89630    0.77630    0.96180    1.000
    C100     C        0.92880    0.56860    0.01279    1.000
    H119     H        0.89430    0.56970    0.96310    1.000
    H120     H        0.95680    0.49850    0.02130    1.000
    C101     C        0.02636    0.67290    0.10304    1.000
    H121     H        0.05510    0.60330    0.11310    1.000
    H122     H        0.05620    0.74070    0.11210    1.000
    C102     C        0.82089    0.41620    0.08321    1.000
    H123     H        0.82380    0.44970    0.12440    1.000
    C103     C        0.83244    0.38470    0.98987    1.000
    H124     H        0.84510    0.39270    0.95380    1.000
    C104     C        0.11368    0.68850    0.25369    1.000
    H125     H        0.13790    0.69420    0.22720    1.000
    C105     C        0.03266    0.67330    0.28314    1.000
    H126     H        0.98870    0.66620    0.28060    1.000
    C106     C        0.59554    0.23120    0.90606    1.000
    H127     H        0.57920    0.23810    0.85730    1.000
    C107     C        0.59944    0.22660    0.00877    1.000
    H128     H        0.58680    0.22900    0.04510    1.000
    C108     C        0.48039    0.26790    0.90544    1.000
    C109     C        0.46091    0.33730    0.83755    1.000
    H129     H        0.47060    0.29150    0.80470    1.000
    H130     H        0.48810    0.40870    0.84840    1.000
    C110     C        0.38378    0.36600    0.80450    1.000
    C111     C        0.34073    0.25400    0.78464    1.000
    H131     H        0.29140    0.27240    0.76280    1.000
    H132     H        0.34980    0.20870    0.75120    1.000
    C112     C        0.36200    0.18480    0.85307    1.000
    C113     C        0.43916    0.15370    0.88785    1.000
    H133     H        0.45170    0.10890    0.93090    1.000
    H134     H        0.44940    0.10700    0.85570    1.000
    C114     C        0.46286    0.34080    0.95544    1.000
    H135     H        0.48960    0.41280    0.96750    1.000
    H136     H        0.47540    0.29760    0.99900    1.000
    C115     C        0.36852    0.43630    0.85641    1.000
    H137     H        0.31920    0.45500    0.83500    1.000
    H138     H        0.39450    0.50900    0.86780    1.000
    C116     C        0.34738    0.25950    0.90444    1.000
    H139     H        0.35930    0.21580    0.94770    1.000
    H140     H        0.29810    0.27840    0.88300    1.000
    C117     C        0.31495    0.51510    0.70956    1.000
    H141     H        0.28630    0.54100    0.72850    1.000
    C118     C        0.39180    0.42380    0.69390    1.000
    H142     H        0.42770    0.37280    0.70020    1.000
    C119     C        0.31715    0.00490    0.88386    1.000
    H143     H        0.34260    0.01330    0.93290    1.000
    C120     C        0.27617    0.03040    0.77235    1.000
    H144     H        0.26780    0.06200    0.72870    1.000
