# CIF file generated by openbabel 3.1.0, see https://openbabel.org
data_I
_chemical_name_common 'RAVVIU_clean'
_cell_length_a 9.8119
_cell_length_b 11.247
_cell_length_c 14.4139
_cell_angle_alpha 91.1553
_cell_angle_beta 90
_cell_angle_gamma 90
_space_group_name_H-M_alt 'P 1'
_space_group_name_Hall 'P 1'
loop_
    _symmetry_equiv_pos_as_xyz
    x,y,z
loop_
    _atom_site_label
    _atom_site_type_symbol
    _atom_site_fract_x
    _atom_site_fract_y
    _atom_site_fract_z
    _atom_site_occupancy
    Co1      Co       0.92027    0.75511    0.13304    1.000
    Co2      Co       0.89038    0.25978    0.68886    1.000
    Co3      Co       0.42027    0.74489    0.36696    1.000
    Co4      Co       0.39038    0.24022    0.81114    1.000
    Co5      Co       0.07973    0.24489    0.86696    1.000
    Co6      Co       0.10962    0.74022    0.31114    1.000
    Co7      Co       0.57973    0.25511    0.63304    1.000
    Co8      Co       0.60962    0.75978    0.18886    1.000
    Co9      Co       0.00000    0.50000    0.00000    1.000
    Co10     Co       0.50000    0.00000    0.50000    1.000
    Co11     Co       0.00000    0.00000    0.00000    1.000
    Co12     Co       0.50000    0.50000    0.50000    1.000
    H1       H        0.75600    0.86500    0.36800    1.000
    H2       H        0.03500    0.47700    0.26600    1.000
    H3       H        0.61700    0.55500    0.03800    1.000
    H4       H        0.70500    0.98900    0.00700    1.000
    H5       H        0.16100    0.69500    0.92900    1.000
    H6       H        0.19300    0.98800    0.23800    1.000
    H7       H        0.25600    0.63500    0.13200    1.000
    H8       H        0.53500    0.02300    0.23400    1.000
    H9       H        0.11700    0.94500    0.46200    1.000
    H10      H        0.20500    0.51100    0.49300    1.000
    H11      H        0.66100    0.80500    0.57100    1.000
    H12      H        0.69300    0.51200    0.26200    1.000
    H13      H        0.24400    0.13500    0.63200    1.000
    H14      H        0.96500    0.52300    0.73400    1.000
    H15      H        0.38300    0.44500    0.96200    1.000
    H16      H        0.29500    0.01100    0.99300    1.000
    H17      H        0.83900    0.30500    0.07100    1.000
    H18      H        0.80700    0.01200    0.76200    1.000
    H19      H        0.74400    0.36500    0.86800    1.000
    H20      H        0.46500    0.97700    0.76600    1.000
    H21      H        0.88300    0.05500    0.53800    1.000
    H22      H        0.79500    0.48900    0.50700    1.000
    H23      H        0.33900    0.19500    0.42900    1.000
    H24      H        0.30700    0.48800    0.73800    1.000
    C1       C        0.82690    0.83160    0.33010    1.000
    C2       C        0.01210    0.51620    0.21240    1.000
    C3       C        0.71070    0.57610    0.04650    1.000
    C4       C        0.12890    0.95510    0.18770    1.000
    C5       C        0.10790    0.74300    0.96990    1.000
    C6       C        0.72120    0.92780    0.04890    1.000
    C7       C        0.32690    0.66840    0.16990    1.000
    C8       C        0.51210    0.98380    0.28760    1.000
    C9       C        0.21070    0.92390    0.45350    1.000
    C10      C        0.62890    0.54490    0.31230    1.000
    C11      C        0.60790    0.75700    0.53010    1.000
    C12      C        0.22120    0.57220    0.45110    1.000
    C13      C        0.17310    0.16840    0.66990    1.000
    C14      C        0.98790    0.48380    0.78760    1.000
    C15      C        0.28930    0.42390    0.95350    1.000
    C16      C        0.87110    0.04490    0.81230    1.000
    C17      C        0.89210    0.25700    0.03010    1.000
    C18      C        0.27880    0.07220    0.95110    1.000
    C19      C        0.67310    0.33160    0.83010    1.000
    C20      C        0.48790    0.01620    0.71240    1.000
    C21      C        0.78930    0.07610    0.54650    1.000
    C22      C        0.37110    0.45510    0.68770    1.000
    C23      C        0.39210    0.24300    0.46990    1.000
    C24      C        0.77880    0.42780    0.54890    1.000
    O1       O        0.79902    0.80929    0.24499    1.000
    O2       O        0.93930    0.81690    0.36810    1.000
    O3       O        0.00394    0.62861    0.21981    1.000
    O4       O        0.99470    0.45680    0.14060    1.000
    O5       O        0.74220    0.65290    0.10840    1.000
    O6       O        0.79070    0.51789    0.99709    1.000
    O7       O        0.08370    0.85011    0.19531    1.000
    O8       O        0.10420    0.02397    0.12417    1.000
    O9       O        0.02770    0.68444    0.02344    1.000
    O10      O        0.11640    0.85140    0.96670    1.000
    O11      O        0.84500    0.89708    0.05988    1.000
    O12      O        0.62090    0.88671    0.08991    1.000
    O13      O        0.29902    0.69071    0.25501    1.000
    O14      O        0.43930    0.68310    0.13190    1.000
    O15      O        0.50394    0.87139    0.28019    1.000
    O16      O        0.49470    0.04320    0.35940    1.000
    O17      O        0.24220    0.84710    0.39160    1.000
    O18      O        0.29070    0.98211    0.50291    1.000
    O19      O        0.58370    0.64989    0.30469    1.000
    O20      O        0.60420    0.47603    0.37583    1.000
    O21      O        0.52770    0.81556    0.47656    1.000
    O22      O        0.61640    0.64860    0.53330    1.000
    O23      O        0.34500    0.60292    0.44012    1.000
    O24      O        0.12090    0.61329    0.41009    1.000
    O25      O        0.20098    0.19071    0.75501    1.000
    O26      O        0.06070    0.18310    0.63190    1.000
    O27      O        0.99606    0.37139    0.78019    1.000
    O28      O        0.00530    0.54320    0.85940    1.000
    O29      O        0.25780    0.34710    0.89160    1.000
    O30      O        0.20930    0.48211    0.00291    1.000
    O31      O        0.91630    0.14989    0.80469    1.000
    O32      O        0.89580    0.97603    0.87583    1.000
    O33      O        0.97230    0.31556    0.97656    1.000
    O34      O        0.88360    0.14860    0.03330    1.000
    O35      O        0.15500    0.10292    0.94012    1.000
    O36      O        0.37910    0.11329    0.91009    1.000
    O37      O        0.70098    0.30929    0.74499    1.000
    O38      O        0.56070    0.31690    0.86810    1.000
    O39      O        0.49606    0.12861    0.71981    1.000
    O40      O        0.50530    0.95680    0.64060    1.000
    O41      O        0.75780    0.15290    0.60840    1.000
    O42      O        0.70930    0.01789    0.49709    1.000
    O43      O        0.41630    0.35011    0.69531    1.000
    O44      O        0.39580    0.52397    0.62417    1.000
    O45      O        0.47230    0.18444    0.52344    1.000
    O46      O        0.38360    0.35140    0.46670    1.000
    O47      O        0.65500    0.39708    0.55988    1.000
    O48      O        0.87910    0.38671    0.58991    1.000
