# CIF file generated by openbabel 3.1.0, see https://openbabel.org
data_I
_chemical_name_common 'image0'
_cell_length_a 8.1685
_cell_length_b 23.616
_cell_length_c 8.8796
_cell_angle_alpha 90
_cell_angle_beta 110.9
_cell_angle_gamma 90
_space_group_name_H-M_alt 'P 1'
_space_group_name_Hall 'P 1'
loop_
    _symmetry_equiv_pos_as_xyz
    x,y,z
loop_
    _atom_site_label
    _atom_site_type_symbol
    _atom_site_fract_x
    _atom_site_fract_y
    _atom_site_fract_z
    _atom_site_occupancy
    Cu1      Cu       0.04667    0.89320    0.69103    1.000
    O1       O        0.19470    0.82980    0.74500    1.000
    O2       O        0.26080    0.74120    0.72940    1.000
    O3       O        0.50370    0.76860    0.00350    1.000
    O4       O        0.55870    0.67990    0.02570    1.000
    O5       O        0.52450    0.67560    0.08670    1.000
    O6       O        0.83590    0.92910    0.62970    1.000
    O7       O        0.61670    0.94920    0.39620    1.000
    O8       O        0.19480    0.95140    0.60320    1.000
    O9       O        0.32670    0.94520    0.41410    1.000
    N1       N        0.97420    0.87220    0.43190    1.000
    C1       C        0.91980    0.81310    0.40550    1.000
    C2       C        0.01700    0.77110    0.51450    1.000
    C3       C        0.77890    0.79840    0.27200    1.000
    C4       C        0.96990    0.71520    0.47900    1.000
    H1       H        0.03410    0.68700    0.54830    1.000
    C5       C        0.73220    0.74160    0.24080    1.000
    C6       C        0.82970    0.69990    0.34300    1.000
    H2       H        0.80130    0.66190    0.32050    1.000
    C7       C        0.16840    0.78170    0.67300    1.000
    C8       C        0.58300    0.72530    0.09260    1.000
    C9       C        0.84800    0.91610    0.34830    1.000
    H3       H        0.90700    0.94860    0.32480    1.000
    H4       H        0.76400    0.90170    0.24820    1.000
    C10      C        0.11570    0.88130    0.37730    1.000
    H5       H        0.18850    0.84770    0.39450    1.000
    H6       H        0.07220    0.89030    0.26330    1.000
    C11      C        0.75770    0.93160    0.46670    1.000
    C12      C        0.21980    0.93060    0.47530    1.000
    K1       K        0.39650    0.63594    0.67400    1.000
    H7       H        0.72100    0.82200    0.21600    1.000
    Cu2      Cu       0.95333    0.39320    0.80897    1.000
    O10      O        0.80530    0.32980    0.75500    1.000
    O11      O        0.73920    0.24120    0.77060    1.000
    O12      O        0.49630    0.26860    0.49650    1.000
    O13      O        0.44130    0.17990    0.47430    1.000
    O14      O        0.47550    0.17560    0.41330    1.000
    O15      O        0.16410    0.42910    0.87030    1.000
    O16      O        0.38330    0.44920    0.10380    1.000
    O17      O        0.80520    0.45140    0.89680    1.000
    O18      O        0.67330    0.44520    0.08590    1.000
    N2       N        0.02580    0.37220    0.06810    1.000
    C13      C        0.08020    0.31310    0.09450    1.000
    C14      C        0.98300    0.27110    0.98550    1.000
    C15      C        0.22110    0.29840    0.22800    1.000
    C16      C        0.03010    0.21520    0.02100    1.000
    H8       H        0.96590    0.18700    0.95170    1.000
    C17      C        0.26780    0.24160    0.25920    1.000
    C18      C        0.17030    0.19990    0.15700    1.000
    H9       H        0.19870    0.16190    0.17950    1.000
    C19      C        0.83160    0.28170    0.82700    1.000
    C20      C        0.41700    0.22530    0.40740    1.000
    C21      C        0.15200    0.41610    0.15170    1.000
    H10      H        0.09300    0.44860    0.17520    1.000
    H11      H        0.23600    0.40170    0.25180    1.000
    C22      C        0.88430    0.38130    0.12270    1.000
    H12      H        0.81150    0.34770    0.10550    1.000
    H13      H        0.92780    0.39030    0.23670    1.000
    C23      C        0.24230    0.43160    0.03330    1.000
    C24      C        0.78020    0.43060    0.02470    1.000
    K2       K        0.60350    0.13594    0.82600    1.000
    H14      H        0.27900    0.32200    0.28400    1.000
    Cu3      Cu       0.95333    0.10680    0.30897    1.000
    O19      O        0.80530    0.17020    0.25500    1.000
    O20      O        0.73920    0.25880    0.27060    1.000
    O21      O        0.49630    0.23140    0.99650    1.000
    O22      O        0.44130    0.32010    0.97430    1.000
    O23      O        0.47550    0.32440    0.91330    1.000
    O24      O        0.16410    0.07090    0.37030    1.000
    O25      O        0.38330    0.05080    0.60380    1.000
    O26      O        0.80520    0.04860    0.39680    1.000
    O27      O        0.67330    0.05480    0.58590    1.000
    N3       N        0.02580    0.12780    0.56810    1.000
    C25      C        0.08020    0.18690    0.59450    1.000
    C26      C        0.98300    0.22890    0.48550    1.000
    C27      C        0.22110    0.20160    0.72800    1.000
    C28      C        0.03010    0.28480    0.52100    1.000
    H15      H        0.96590    0.31300    0.45170    1.000
    C29      C        0.26780    0.25840    0.75920    1.000
    C30      C        0.17030    0.30010    0.65700    1.000
    H16      H        0.19870    0.33810    0.67950    1.000
    C31      C        0.83160    0.21830    0.32700    1.000
    C32      C        0.41700    0.27470    0.90740    1.000
    C33      C        0.15200    0.08390    0.65170    1.000
    H17      H        0.09300    0.05140    0.67520    1.000
    H18      H        0.23600    0.09830    0.75180    1.000
    C34      C        0.88430    0.11870    0.62270    1.000
    H19      H        0.81150    0.15230    0.60550    1.000
    H20      H        0.92780    0.10970    0.73670    1.000
    C35      C        0.24230    0.06840    0.53330    1.000
    C36      C        0.78020    0.06940    0.52470    1.000
    K3       K        0.60350    0.36406    0.32600    1.000
    H21      H        0.27900    0.17800    0.78400    1.000
    Cu4      Cu       0.04667    0.60680    0.19103    1.000
    O28      O        0.19470    0.67020    0.24500    1.000
    O29      O        0.26080    0.75880    0.22940    1.000
    O30      O        0.50370    0.73140    0.50350    1.000
    O31      O        0.55870    0.82010    0.52570    1.000
    O32      O        0.52450    0.82440    0.58670    1.000
    O33      O        0.83590    0.57090    0.12970    1.000
    O34      O        0.61670    0.55080    0.89620    1.000
    O35      O        0.19480    0.54860    0.10320    1.000
    O36      O        0.32670    0.55480    0.91410    1.000
    N4       N        0.97420    0.62780    0.93190    1.000
    C37      C        0.91980    0.68690    0.90550    1.000
    C38      C        0.01700    0.72890    0.01450    1.000
    C39      C        0.77890    0.70160    0.77200    1.000
    C40      C        0.96990    0.78480    0.97900    1.000
    H22      H        0.03410    0.81300    0.04830    1.000
    C41      C        0.73220    0.75840    0.74080    1.000
    C42      C        0.82970    0.80010    0.84300    1.000
    H23      H        0.80130    0.83810    0.82050    1.000
    C43      C        0.16840    0.71830    0.17300    1.000
    C44      C        0.58300    0.77470    0.59260    1.000
    C45      C        0.84800    0.58390    0.84830    1.000
    H24      H        0.90700    0.55140    0.82480    1.000
    H25      H        0.76400    0.59830    0.74820    1.000
    C46      C        0.11570    0.61870    0.87730    1.000
    H26      H        0.18850    0.65230    0.89450    1.000
    H27      H        0.07220    0.60970    0.76330    1.000
    C47      C        0.75770    0.56840    0.96670    1.000
    C48      C        0.21980    0.56940    0.97530    1.000
    K4       K        0.39650    0.86406    0.17400    1.000
    H28      H        0.72100    0.67800    0.71600    1.000
    Cu5      Cu       0.50000    0.00000    0.50000    1.000
    Cu6      Cu       0.50000    0.50000    0.00000    1.000
