data_functionalizedCrystal
_audit_creation_method	'EQeq! by Chris Wilmer'
_symmetry_space_group_name_H-M	'P1'
_symmetry_Int_Tables_number	1
_symmetry_cell_setting	triclinic
loop_
_symmetry_equiv_pos_as_xyz
  x,y,z
_cell_length_a	6.188
_cell_length_b	8.7339
_cell_length_c	9.312
_cell_angle_alpha	64.553
_cell_angle_beta	84.64
_cell_angle_gamma	84.1397
loop_
_atom_site_label
_atom_site_type_symbol
_atom_site_fract_x
_atom_site_fract_y
_atom_site_fract_z
_atom_site_charge
Mof_Ba	Ba	0.72173	0.45967	0.70927	1.892
Mof_Ba	Ba	0.78572	0.86353	0.91879	1.727
Mof_Ba	Ba	0.27827	0.54033	0.29073	1.892
Mof_Ba	Ba	0.21428	0.13647	0.08121	1.727
Mof_C 	C 	0.1784	0.5818	0.827	0.255
Mof_C 	C 	0.327	0.6819	0.8709	0.22
Mof_C 	C 	0.1338	0.2216	0.6805	0.21
Mof_C 	C 	0.3888	0.2162	0.6859	0.215
Mof_C 	C 	0.8216	0.4182	0.173	0.255
Mof_C 	C 	0.673	0.3181	0.1291	0.22
Mof_C 	C 	0.8662	0.7784	0.3195	0.21
Mof_C 	C 	0.6112	0.7838	0.3141	0.215
Mof_O 	O 	0.9803	0.6293	0.8138	-0.579
Mof_O 	O 	0.2623	0.4536	0.8076	-0.545
Mof_O 	O 	0.2432	0.7531	0.9585	-0.558
Mof_O 	O 	0.5234	0.6874	0.822	-0.562
Mof_O 	O 	0.0273	0.1445	0.8128	-0.602
Mof_O 	O 	0.0484	0.3144	0.5495	-0.538
Mof_O 	O 	0.4765	0.1332	0.8169	-0.6
Mof_O 	O 	0.4892	0.3061	0.5536	-0.535
Mof_O 	O 	0.0197	0.3707	0.1862	-0.579
Mof_O 	O 	0.7377	0.5464	0.1924	-0.545
Mof_O 	O 	0.7568	0.2469	0.0415	-0.558
Mof_O 	O 	0.4766	0.3126	0.178	-0.562
Mof_O 	O 	0.9727	0.8555	0.1872	-0.602
Mof_O 	O 	0.9516	0.6856	0.4505	-0.538
Mof_O 	O 	0.5235	0.8668	0.1831	-0.6
Mof_O 	O 	0.5108	0.6939	0.4464	-0.535
_end
