data_functionalizedCrystal
_audit_creation_method	'EQeq! by Chris Wilmer'
_symmetry_space_group_name_H-M	'P1'
_symmetry_Int_Tables_number	1
_symmetry_cell_setting	triclinic
loop_
_symmetry_equiv_pos_as_xyz
  x,y,z
_cell_length_a	8.7388
_cell_length_b	11.7417
_cell_length_c	15.1238
_cell_angle_alpha	90
_cell_angle_beta	92.605
_cell_angle_gamma	90
loop_
_atom_site_label
_atom_site_type_symbol
_atom_site_fract_x
_atom_site_fract_y
_atom_site_fract_z
_atom_site_charge
Mof_Cu	Cu	0.31041	0.15542	0.75167	0.883
Mof_Cu	Cu	0.50136	0.34154	0.86407	0.872
Mof_Cu	Cu	0.68959	0.15542	0.74833	0.883
Mof_Cu	Cu	0.49864	0.34154	0.63593	0.872
Mof_Cu	Cu	0.68959	0.84458	0.24833	0.883
Mof_Cu	Cu	0.49864	0.65846	0.13593	0.872
Mof_Cu	Cu	0.31041	0.84458	0.25167	0.883
Mof_Cu	Cu	0.50136	0.65846	0.36407	0.872
Mof_H 	H 	0.325	0.129	0.5504	-0.034
Mof_H 	H 	0.5003	0.0995	0.5458	-0.037
Mof_H 	H 	0.4803	0.956	0.6508	0.045
Mof_H 	H 	0.3465	0.9349	0.5794	0.061
Mof_H 	H 	0.4801	0.5529	0.8512	0.079
Mof_H 	H 	0.3863	0.5185	0.9239	0.077
Mof_H 	H 	0.1309	0.3853	0.7481	-0.03
Mof_H 	H 	0.1592	0.3633	0.8503	-0.038
Mof_H 	H 	0.1958	0.5561	0.8329	0.063
Mof_H 	H 	0.2975	0.5369	0.751	0.052
Mof_H 	H 	0.1764	0.0021	0.6684	0.09
Mof_H 	H 	0.2804	0.948	0.7339	0.084
Mof_H 	H 	0.675	0.129	0.9496	-0.036
Mof_H 	H 	0.4997	0.0995	0.9542	-0.039
Mof_H 	H 	0.5197	0.956	0.8492	0.045
Mof_H 	H 	0.6535	0.9349	0.9206	0.061
Mof_H 	H 	0.5199	0.5529	0.6488	0.079
Mof_H 	H 	0.6137	0.5185	0.5761	0.077
Mof_H 	H 	0.8691	0.3853	0.7519	-0.031
Mof_H 	H 	0.8408	0.3633	0.6497	-0.039
Mof_H 	H 	0.8042	0.5561	0.6671	0.062
Mof_H 	H 	0.7025	0.5369	0.749	0.052
Mof_H 	H 	0.8236	0.0021	0.8316	0.089
Mof_H 	H 	0.7196	0.948	0.7661	0.084
Mof_H 	H 	0.675	0.871	0.4496	-0.035
Mof_H 	H 	0.4997	0.9005	0.4542	-0.038
Mof_H 	H 	0.5197	0.044	0.3492	0.045
Mof_H 	H 	0.6535	0.0651	0.4206	0.06
Mof_H 	H 	0.5199	0.4471	0.1488	0.08
Mof_H 	H 	0.6137	0.4815	0.0761	0.078
Mof_H 	H 	0.8691	0.6147	0.2519	-0.031
Mof_H 	H 	0.8408	0.6367	0.1497	-0.039
Mof_H 	H 	0.8042	0.4439	0.1671	0.062
Mof_H 	H 	0.7025	0.4631	0.249	0.052
Mof_H 	H 	0.8236	0.9979	0.3316	0.089
Mof_H 	H 	0.7196	0.052	0.2661	0.085
Mof_H 	H 	0.325	0.871	0.0504	-0.034
Mof_H 	H 	0.5003	0.9005	0.0458	-0.037
Mof_H 	H 	0.4803	0.044	0.1508	0.045
Mof_H 	H 	0.3465	0.0651	0.0794	0.061
Mof_H 	H 	0.4801	0.4471	0.3512	0.079
Mof_H 	H 	0.3863	0.4815	0.4239	0.077
Mof_H 	H 	0.1309	0.6147	0.2481	-0.03
Mof_H 	H 	0.1592	0.6367	0.3503	-0.038
Mof_H 	H 	0.1958	0.4439	0.3329	0.063
Mof_H 	H 	0.2975	0.4631	0.251	0.053
Mof_H 	H 	0.1764	0.9979	0.1684	0.09
Mof_H 	H 	0.2804	0.052	0.2339	0.086
Mof_Au	Au	-0	0	-0	-0.009
Mof_Au	Au	4.58348e-18	-8.1419e-33	0.5	-0.01
Mof_Au	Au	-0	0.5	-0	-0.007
Mof_Au	Au	3.39191e-33	0.5	0.5	-0.008
Mof_C 	C 	0.1068	0.0748	0.9023	0.021
Mof_C 	C 	0.8123	0.4245	0.95005	0.025
Mof_C 	C 	0.415	0.1032	0.5846	0.124
Mof_C 	C 	0.386	0.9871	0.6245	-0.161
Mof_C 	C 	0.207	0.3874	0.7968	0.128
Mof_C 	C 	0.2716	0.5065	0.8081	-0.163
Mof_C 	C 	0.8932	0.0748	0.5977	0.019
Mof_C 	C 	0.1877	0.4245	0.54995	0.028
Mof_C 	C 	0.585	0.1032	0.9154	0.124
Mof_C 	C 	0.614	0.9871	0.8755	-0.162
Mof_C 	C 	0.793	0.3874	0.7032	0.128
Mof_C 	C 	0.7284	0.5065	0.6919	-0.163
Mof_C 	C 	0.8932	0.9252	0.0977	0.019
Mof_C 	C 	0.1877	0.5755	0.04995	0.028
Mof_C 	C 	0.585	0.8968	0.4154	0.121
Mof_C 	C 	0.614	0.0129	0.3755	-0.158
Mof_C 	C 	0.793	0.6126	0.2032	0.128
Mof_C 	C 	0.7284	0.4935	0.1919	-0.163
Mof_C 	C 	0.1068	0.9252	0.4023	0.021
Mof_C 	C 	0.8123	0.5755	0.45005	0.026
Mof_C 	C 	0.415	0.8968	0.0846	0.121
Mof_C 	C 	0.386	0.0129	0.1245	-0.157
Mof_C 	C 	0.207	0.6126	0.2968	0.128
Mof_C 	C 	0.2716	0.4935	0.3081	-0.163
Mof_N 	N 	0.1716	0.1162	0.84594	-0.249
Mof_N 	N 	0.6996	0.385	0.92229	-0.251
Mof_N 	N 	0.4109	0.50164	0.86826	-0.295
Mof_N 	N 	0.2718	0.004	0.69335	-0.3
Mof_N 	N 	0.8284	0.1162	0.65406	-0.249
Mof_N 	N 	0.3004	0.385	0.57771	-0.251
Mof_N 	N 	0.5891	0.50164	0.63174	-0.295
Mof_N 	N 	0.7282	0.004	0.80665	-0.3
Mof_N 	N 	0.8284	0.8838	0.15406	-0.249
Mof_N 	N 	0.3004	0.615	0.07771	-0.251
Mof_N 	N 	0.5891	0.49836	0.13174	-0.295
Mof_N 	N 	0.7282	0.996	0.30665	-0.302
Mof_N 	N 	0.1716	0.8838	0.34594	-0.249
Mof_N 	N 	0.6996	0.615	0.42229	-0.251
Mof_N 	N 	0.4109	0.49836	0.36826	-0.295
Mof_N 	N 	0.2718	0.996	0.19335	-0.302
Mof_O 	O 	0.3322	0.31504	0.77894	-0.515
Mof_O 	O 	0.4492	0.17901	0.65623	-0.519
Mof_O 	O 	0.6678	0.31504	0.72106	-0.516
Mof_O 	O 	0.5508	0.17901	0.84377	-0.52
Mof_O 	O 	0.6678	0.68496	0.22106	-0.516
Mof_O 	O 	0.5508	0.82099	0.34377	-0.519
Mof_O 	O 	0.3322	0.68496	0.27894	-0.516
Mof_O 	O 	0.4492	0.82099	0.15623	-0.519
_end
