data_functionalizedCrystal
_audit_creation_method	'EQeq! by Chris Wilmer'
_symmetry_space_group_name_H-M	'P1'
_symmetry_Int_Tables_number	1
_symmetry_cell_setting	triclinic
loop_
_symmetry_equiv_pos_as_xyz
  x,y,z
_cell_length_a	8.6945
_cell_length_b	20.808
_cell_length_c	34.079
_cell_angle_alpha	90
_cell_angle_beta	90
_cell_angle_gamma	90
loop_
_atom_site_label
_atom_site_type_symbol
_atom_site_fract_x
_atom_site_fract_y
_atom_site_fract_z
_atom_site_charge
Mof_O 	O 	0.248	0.333	0.5932	-0.602
Mof_O 	O 	0.0072	0.333	0.5708	-0.577
Mof_O 	O 	0.2402	0.4577	0.6369	-0.593
Mof_C 	C 	0.1459	0.3192	0.5681	0.557
Mof_C 	C 	0.2006	0.285	0.5324	-0.152
Mof_C 	C 	0.0968	0.2666	0.5041	-0.002
Mof_C 	C 	0.1467	0.2317	0.4716	0.016
Mof_C 	C 	0.218	0.5907	0.6508	0.001
Mof_C 	C 	0.218	0.6575	0.6507	0.007
Mof_H 	H 	0.9913	0.2775	0.507	0.043
Mof_H 	H 	0.074	0.2193	0.4523	0.025
Mof_H 	H 	0.271	0.568	0.6709	0.036
Mof_H 	H 	0.2722	0.68	0.6708	0.025
Mof_O 	O 	0.248	0.833	0.0932	-0.603
Mof_O 	O 	0.0072	0.833	0.0708	-0.576
Mof_O 	O 	0.2402	0.9577	0.1369	-0.594
Mof_C 	C 	0.1459	0.8192	0.0681	0.557
Mof_C 	C 	0.2006	0.785	0.0324	-0.156
Mof_C 	C 	0.0968	0.7666	0.0041	0.008
Mof_C 	C 	0.1467	0.7317	0.9716	0.01
Mof_C 	C 	0.218	0.0907	0.1508	0.002
Mof_C 	C 	0.218	0.1575	0.1507	0.007
Mof_H 	H 	0.9913	0.7775	0.007	0.037
Mof_H 	H 	0.074	0.7193	0.9523	0.028
Mof_H 	H 	0.271	0.068	0.1709	0.036
Mof_H 	H 	0.2722	0.18	0.1708	0.025
Mof_O 	O 	0.748	0.333	0.0932	-0.603
Mof_O 	O 	0.5072	0.333	0.0708	-0.578
Mof_O 	O 	0.7402	0.4577	0.1369	-0.594
Mof_C 	C 	0.6459	0.3192	0.0681	0.555
Mof_C 	C 	0.7006	0.285	0.0324	-0.151
Mof_C 	C 	0.5968	0.2666	0.0041	-0.002
Mof_C 	C 	0.6467	0.2317	0.9716	0.017
Mof_C 	C 	0.718	0.5907	0.1508	0.001
Mof_C 	C 	0.718	0.6575	0.1507	0.007
Mof_H 	H 	0.4913	0.2775	0.007	0.042
Mof_H 	H 	0.574	0.2193	0.9523	0.025
Mof_H 	H 	0.771	0.568	0.1709	0.036
Mof_H 	H 	0.7722	0.68	0.1708	0.025
Mof_O 	O 	0.748	0.833	0.5932	-0.603
Mof_O 	O 	0.5072	0.833	0.5708	-0.578
Mof_O 	O 	0.7402	0.9577	0.6369	-0.594
Mof_C 	C 	0.6459	0.8192	0.5681	0.556
Mof_C 	C 	0.7006	0.785	0.5324	-0.154
Mof_C 	C 	0.5968	0.7666	0.5041	0.002
Mof_C 	C 	0.6467	0.7317	0.4716	0.014
Mof_C 	C 	0.718	0.0907	0.6508	0.001
Mof_C 	C 	0.718	0.1575	0.6507	0.008
Mof_H 	H 	0.4913	0.7775	0.507	0.041
Mof_H 	H 	0.574	0.7193	0.4523	0.026
Mof_H 	H 	0.771	0.068	0.6709	0.037
Mof_H 	H 	0.7722	0.18	0.6708	0.025
Mof_O 	O 	0.502	0.417	0.5932	-0.603
Mof_O 	O 	0.7428	0.417	0.5708	-0.578
Mof_O 	O 	0.5098	0.2923	0.6369	-0.594
Mof_C 	C 	0.6041	0.4308	0.5681	0.556
Mof_C 	C 	0.5494	0.465	0.5324	-0.153
Mof_C 	C 	0.6532	0.4834	0.5041	0.001
Mof_C 	C 	0.6033	0.5183	0.4716	0.014
Mof_C 	C 	0.532	0.1593	0.6508	0.002
Mof_C 	C 	0.532	0.0925	0.6507	0.007
Mof_H 	H 	0.7587	0.4725	0.507	0.041
Mof_H 	H 	0.676	0.5307	0.4523	0.026
Mof_H 	H 	0.479	0.182	0.6709	0.036
Mof_H 	H 	0.4778	0.07	0.6708	0.025
Mof_O 	O 	0.502	0.917	0.0932	-0.603
Mof_O 	O 	0.7428	0.917	0.0708	-0.578
Mof_O 	O 	0.5098	0.7923	0.1369	-0.594
Mof_C 	C 	0.6041	0.9308	0.0681	0.556
Mof_C 	C 	0.5494	0.965	0.0324	-0.153
Mof_C 	C 	0.6532	0.9834	0.0041	-0
Mof_C 	C 	0.6033	0.0183	0.9716	0.016
Mof_C 	C 	0.532	0.6593	0.1508	0.001
Mof_C 	C 	0.532	0.5925	0.1507	0.007
Mof_H 	H 	0.7587	0.9725	0.007	0.041
Mof_H 	H 	0.676	0.0307	0.9523	0.026
Mof_H 	H 	0.479	0.682	0.1709	0.036
Mof_H 	H 	0.4778	0.57	0.1708	0.025
Mof_O 	O 	0.002	0.417	0.0932	-0.602
Mof_O 	O 	0.2428	0.417	0.0708	-0.578
Mof_O 	O 	0.0098	0.2923	0.1369	-0.594
Mof_C 	C 	0.1041	0.4308	0.0681	0.556
Mof_C 	C 	0.0494	0.465	0.0324	-0.152
Mof_C 	C 	0.1532	0.4834	0.0041	0.002
Mof_C 	C 	0.1033	0.5183	0.9716	0.013
Mof_C 	C 	0.032	0.1593	0.1508	0.001
Mof_C 	C 	0.032	0.0925	0.1507	0.006
Mof_H 	H 	0.2587	0.4725	0.007	0.041
Mof_H 	H 	0.176	0.5307	0.9523	0.027
Mof_H 	H 	0.979	0.182	0.1709	0.036
Mof_H 	H 	0.9778	0.07	0.1708	0.026
Mof_O 	O 	0.002	0.917	0.5932	-0.6
Mof_O 	O 	0.2428	0.917	0.5708	-0.578
Mof_O 	O 	0.0098	0.7923	0.6369	-0.592
Mof_C 	C 	0.1041	0.9308	0.5681	0.555
Mof_C 	C 	0.0494	0.965	0.5324	-0.15
Mof_C 	C 	0.1532	0.9834	0.5041	0.004
Mof_C 	C 	0.1033	0.0183	0.4716	0.008
Mof_C 	C 	0.032	0.6593	0.6508	0.004
Mof_C 	C 	0.032	0.5925	0.6507	0.007
Mof_H 	H 	0.2587	0.9725	0.507	0.041
Mof_H 	H 	0.176	0.0307	0.4523	0.028
Mof_H 	H 	0.979	0.682	0.6709	0.034
Mof_H 	H 	0.9778	0.57	0.6708	0.024
Mof_O 	O 	0.502	0.333	0.1568	-0.603
Mof_O 	O 	0.7428	0.333	0.1792	-0.578
Mof_O 	O 	0.5098	0.4577	0.1131	-0.594
Mof_C 	C 	0.6041	0.3192	0.1819	0.556
Mof_C 	C 	0.5494	0.285	0.2176	-0.153
Mof_C 	C 	0.6532	0.2666	0.2459	0.001
Mof_C 	C 	0.6033	0.2317	0.2784	0.015
Mof_C 	C 	0.532	0.5907	0.0992	0.001
Mof_C 	C 	0.532	0.6575	0.0993	0.007
Mof_H 	H 	0.7587	0.2775	0.243	0.042
Mof_H 	H 	0.676	0.2193	0.2977	0.026
Mof_H 	H 	0.479	0.568	0.0791	0.036
Mof_H 	H 	0.4778	0.68	0.0792	0.025
Mof_O 	O 	0.502	0.833	0.6568	-0.603
Mof_O 	O 	0.7428	0.833	0.6792	-0.578
Mof_O 	O 	0.5098	0.9577	0.6131	-0.594
Mof_C 	C 	0.6041	0.8192	0.6819	0.556
Mof_C 	C 	0.5494	0.785	0.7176	-0.153
Mof_C 	C 	0.6532	0.7666	0.7459	0.001
Mof_C 	C 	0.6033	0.7317	0.7784	0.014
Mof_C 	C 	0.532	0.0907	0.5992	0.001
Mof_C 	C 	0.532	0.1575	0.5993	0.007
Mof_H 	H 	0.7587	0.7775	0.743	0.041
Mof_H 	H 	0.676	0.7193	0.7977	0.026
Mof_H 	H 	0.479	0.068	0.5791	0.036
Mof_H 	H 	0.4778	0.18	0.5792	0.025
Mof_O 	O 	0.002	0.333	0.6568	-0.603
Mof_O 	O 	0.2428	0.333	0.6792	-0.579
Mof_O 	O 	0.0098	0.4577	0.6131	-0.594
Mof_C 	C 	0.1041	0.3192	0.6819	0.558
Mof_C 	C 	0.0494	0.285	0.7176	-0.157
Mof_C 	C 	0.1532	0.2666	0.7459	0.005
Mof_C 	C 	0.1033	0.2317	0.7784	0.008
Mof_C 	C 	0.032	0.5907	0.5992	0.002
Mof_C 	C 	0.032	0.6575	0.5993	0.009
Mof_H 	H 	0.2587	0.2775	0.743	0.04
Mof_H 	H 	0.176	0.2193	0.7977	0.028
Mof_H 	H 	0.979	0.568	0.5791	0.035
Mof_H 	H 	0.9778	0.68	0.5792	0.024
Mof_O 	O 	0.002	0.833	0.1568	-0.6
Mof_O 	O 	0.2428	0.833	0.1792	-0.578
Mof_O 	O 	0.0098	0.9577	0.1131	-0.592
Mof_C 	C 	0.1041	0.8192	0.1819	0.554
Mof_C 	C 	0.0494	0.785	0.2176	-0.148
Mof_C 	C 	0.1532	0.7666	0.2459	-0.003
Mof_C 	C 	0.1033	0.7317	0.2784	0.019
Mof_C 	C 	0.032	0.0907	0.0992	0.001
Mof_C 	C 	0.032	0.1575	0.0993	0.007
Mof_H 	H 	0.2587	0.7775	0.243	0.043
Mof_H 	H 	0.176	0.7193	0.2977	0.025
Mof_H 	H 	0.979	0.068	0.0791	0.037
Mof_H 	H 	0.9778	0.18	0.0792	0.025
Mof_O 	O 	0.248	0.417	0.1568	-0.603
Mof_O 	O 	0.0072	0.417	0.1792	-0.578
Mof_O 	O 	0.2402	0.2923	0.1131	-0.594
Mof_C 	C 	0.1459	0.4308	0.1819	0.556
Mof_C 	C 	0.2006	0.465	0.2176	-0.154
Mof_C 	C 	0.0968	0.4834	0.2459	0.002
Mof_C 	C 	0.1467	0.5183	0.2784	0.014
Mof_C 	C 	0.218	0.1593	0.0992	0.001
Mof_C 	C 	0.218	0.0925	0.0993	0.008
Mof_H 	H 	0.9913	0.4725	0.243	0.041
Mof_H 	H 	0.074	0.5307	0.2977	0.026
Mof_H 	H 	0.271	0.182	0.0791	0.036
Mof_H 	H 	0.2722	0.07	0.0792	0.025
Mof_O 	O 	0.248	0.917	0.6568	-0.603
Mof_O 	O 	0.0072	0.917	0.6792	-0.577
Mof_O 	O 	0.2402	0.7923	0.6131	-0.594
Mof_C 	C 	0.1459	0.9308	0.6819	0.558
Mof_C 	C 	0.2006	0.965	0.7176	-0.159
Mof_C 	C 	0.0968	0.9834	0.7459	0.012
Mof_C 	C 	0.1467	0.0183	0.7784	0.006
Mof_C 	C 	0.218	0.6593	0.5992	0.002
Mof_C 	C 	0.218	0.5925	0.5993	0.007
Mof_H 	H 	0.9913	0.9725	0.743	0.036
Mof_H 	H 	0.074	0.0307	0.7977	0.028
Mof_H 	H 	0.271	0.682	0.5791	0.036
Mof_H 	H 	0.2722	0.57	0.5792	0.025
Mof_O 	O 	0.748	0.417	0.6568	-0.603
Mof_O 	O 	0.5072	0.417	0.6792	-0.578
Mof_O 	O 	0.7402	0.2923	0.6131	-0.594
Mof_C 	C 	0.6459	0.4308	0.6819	0.556
Mof_C 	C 	0.7006	0.465	0.7176	-0.153
Mof_C 	C 	0.5968	0.4834	0.7459	0.001
Mof_C 	C 	0.6467	0.5183	0.7784	0.015
Mof_C 	C 	0.718	0.1593	0.5992	0.002
Mof_C 	C 	0.718	0.0925	0.5993	0.007
Mof_H 	H 	0.4913	0.4725	0.743	0.042
Mof_H 	H 	0.574	0.5307	0.7977	0.026
Mof_H 	H 	0.771	0.182	0.5791	0.036
Mof_H 	H 	0.7722	0.07	0.5792	0.026
Mof_O 	O 	0.748	0.917	0.1568	-0.602
Mof_O 	O 	0.5072	0.917	0.1792	-0.578
Mof_O 	O 	0.7402	0.7923	0.1131	-0.594
Mof_C 	C 	0.6459	0.9308	0.1819	0.554
Mof_C 	C 	0.7006	0.965	0.2176	-0.148
Mof_C 	C 	0.5968	0.9834	0.2459	-0.005
Mof_C 	C 	0.6467	0.0183	0.2784	0.02
Mof_C 	C 	0.718	0.6593	0.0992	0.001
Mof_C 	C 	0.718	0.5925	0.0993	0.007
Mof_H 	H 	0.4913	0.9725	0.243	0.043
Mof_H 	H 	0.574	0.0307	0.2977	0.024
Mof_H 	H 	0.771	0.682	0.0791	0.036
Mof_H 	H 	0.7722	0.57	0.0792	0.025
Mof_O 	O 	0.752	0.667	0.4068	-0.603
Mof_O 	O 	0.9928	0.667	0.4292	-0.578
Mof_O 	O 	0.7598	0.5423	0.3631	-0.594
Mof_C 	C 	0.8541	0.6808	0.4319	0.556
Mof_C 	C 	0.7994	0.715	0.4676	-0.152
Mof_C 	C 	0.9032	0.7334	0.4959	-0.002
Mof_C 	C 	0.8533	0.7683	0.5284	0.016
Mof_C 	C 	0.782	0.4093	0.3492	0.001
Mof_C 	C 	0.782	0.3425	0.3493	0.007
Mof_H 	H 	0.0087	0.7225	0.493	0.043
Mof_H 	H 	0.926	0.7807	0.5477	0.025
Mof_H 	H 	0.729	0.432	0.3291	0.036
Mof_H 	H 	0.7278	0.32	0.3292	0.025
Mof_O 	O 	0.752	0.167	0.9068	-0.603
Mof_O 	O 	0.9928	0.167	0.9292	-0.576
Mof_O 	O 	0.7598	0.0423	0.8631	-0.594
Mof_C 	C 	0.8541	0.1808	0.9319	0.557
Mof_C 	C 	0.7994	0.215	0.9676	-0.156
Mof_C 	C 	0.9032	0.2334	0.9959	0.008
Mof_C 	C 	0.8533	0.2683	0.0284	0.01
Mof_C 	C 	0.782	0.9093	0.8492	0.002
Mof_C 	C 	0.782	0.8425	0.8493	0.007
Mof_H 	H 	0.0087	0.2225	0.993	0.037
Mof_H 	H 	0.926	0.2807	0.0477	0.028
Mof_H 	H 	0.729	0.932	0.8291	0.036
Mof_H 	H 	0.7278	0.82	0.8292	0.025
Mof_O 	O 	0.252	0.667	0.9068	-0.603
Mof_O 	O 	0.4928	0.667	0.9292	-0.578
Mof_O 	O 	0.2598	0.5423	0.8631	-0.594
Mof_C 	C 	0.3541	0.6808	0.9319	0.555
Mof_C 	C 	0.2994	0.715	0.9676	-0.151
Mof_C 	C 	0.4032	0.7334	0.9959	-0.002
Mof_C 	C 	0.3533	0.7683	0.0284	0.017
Mof_C 	C 	0.282	0.4093	0.8492	0.001
Mof_C 	C 	0.282	0.3425	0.8493	0.007
Mof_H 	H 	0.5087	0.7225	0.993	0.042
Mof_H 	H 	0.426	0.7807	0.0477	0.025
Mof_H 	H 	0.229	0.432	0.8291	0.036
Mof_H 	H 	0.2278	0.32	0.8292	0.025
Mof_O 	O 	0.252	0.167	0.4068	-0.603
Mof_O 	O 	0.4928	0.167	0.4292	-0.578
Mof_O 	O 	0.2598	0.0423	0.3631	-0.594
Mof_C 	C 	0.3541	0.1808	0.4319	0.556
Mof_C 	C 	0.2994	0.215	0.4676	-0.154
Mof_C 	C 	0.4032	0.2334	0.4959	0.002
Mof_C 	C 	0.3533	0.2683	0.5284	0.014
Mof_C 	C 	0.282	0.9093	0.3492	0.001
Mof_C 	C 	0.282	0.8425	0.3493	0.008
Mof_H 	H 	0.5087	0.2225	0.493	0.041
Mof_H 	H 	0.426	0.2807	0.5477	0.026
Mof_H 	H 	0.229	0.932	0.3291	0.037
Mof_H 	H 	0.2278	0.82	0.3292	0.025
Mof_O 	O 	0.498	0.583	0.4068	-0.603
Mof_O 	O 	0.2572	0.583	0.4292	-0.578
Mof_O 	O 	0.4902	0.7077	0.3631	-0.594
Mof_C 	C 	0.3959	0.5692	0.4319	0.556
Mof_C 	C 	0.4506	0.535	0.4676	-0.153
Mof_C 	C 	0.3468	0.5166	0.4959	0.001
Mof_C 	C 	0.3967	0.4817	0.5284	0.014
Mof_C 	C 	0.468	0.8407	0.3492	0.002
Mof_C 	C 	0.468	0.9075	0.3493	0.007
Mof_H 	H 	0.2413	0.5275	0.493	0.041
Mof_H 	H 	0.324	0.4693	0.5477	0.026
Mof_H 	H 	0.521	0.818	0.3291	0.036
Mof_H 	H 	0.5222	0.93	0.3292	0.025
Mof_O 	O 	0.498	0.083	0.9068	-0.603
Mof_O 	O 	0.2572	0.083	0.9292	-0.578
Mof_O 	O 	0.4902	0.2077	0.8631	-0.594
Mof_C 	C 	0.3959	0.0692	0.9319	0.556
Mof_C 	C 	0.4506	0.035	0.9676	-0.153
Mof_C 	C 	0.3468	0.0166	0.9959	-0
Mof_C 	C 	0.3967	0.9817	0.0284	0.016
Mof_C 	C 	0.468	0.3407	0.8492	0.001
Mof_C 	C 	0.468	0.4075	0.8493	0.007
Mof_H 	H 	0.2413	0.0275	0.993	0.041
Mof_H 	H 	0.324	0.9693	0.0477	0.026
Mof_H 	H 	0.521	0.318	0.8291	0.036
Mof_H 	H 	0.5222	0.43	0.8292	0.025
Mof_O 	O 	0.998	0.583	0.9068	-0.602
Mof_O 	O 	0.7572	0.583	0.9292	-0.578
Mof_O 	O 	0.9902	0.7077	0.8631	-0.594
Mof_C 	C 	0.8959	0.5692	0.9319	0.556
Mof_C 	C 	0.9506	0.535	0.9676	-0.152
Mof_C 	C 	0.8468	0.5166	0.9959	0.002
Mof_C 	C 	0.8967	0.4817	0.0284	0.013
Mof_C 	C 	0.968	0.8407	0.8492	0.001
Mof_C 	C 	0.968	0.9075	0.8493	0.006
Mof_H 	H 	0.7413	0.5275	0.993	0.041
Mof_H 	H 	0.824	0.4693	0.0477	0.027
Mof_H 	H 	0.021	0.818	0.8291	0.036
Mof_H 	H 	0.0222	0.93	0.8292	0.026
Mof_O 	O 	0.998	0.083	0.4068	-0.6
Mof_O 	O 	0.7572	0.083	0.4292	-0.578
Mof_O 	O 	0.9902	0.2077	0.3631	-0.592
Mof_C 	C 	0.8959	0.0692	0.4319	0.555
Mof_C 	C 	0.9506	0.035	0.4676	-0.15
Mof_C 	C 	0.8468	0.0166	0.4959	0.004
Mof_C 	C 	0.8967	0.9817	0.5284	0.008
Mof_C 	C 	0.968	0.3407	0.3492	0.004
Mof_C 	C 	0.968	0.4075	0.3493	0.007
Mof_H 	H 	0.7413	0.0275	0.493	0.041
Mof_H 	H 	0.824	0.9693	0.5477	0.028
Mof_H 	H 	0.021	0.318	0.3291	0.034
Mof_H 	H 	0.0222	0.43	0.3292	0.024
Mof_O 	O 	0.498	0.667	0.8432	-0.603
Mof_O 	O 	0.2572	0.667	0.8208	-0.578
Mof_O 	O 	0.4902	0.5423	0.8869	-0.594
Mof_C 	C 	0.3959	0.6808	0.8181	0.556
Mof_C 	C 	0.4506	0.715	0.7824	-0.153
Mof_C 	C 	0.3468	0.7334	0.7541	0.001
Mof_C 	C 	0.3967	0.7683	0.7216	0.015
Mof_C 	C 	0.468	0.4093	0.9008	0.001
Mof_C 	C 	0.468	0.3425	0.9007	0.007
Mof_H 	H 	0.2413	0.7225	0.757	0.042
Mof_H 	H 	0.324	0.7807	0.7023	0.026
Mof_H 	H 	0.521	0.432	0.9209	0.036
Mof_H 	H 	0.5222	0.32	0.9208	0.025
Mof_O 	O 	0.498	0.167	0.3432	-0.603
Mof_O 	O 	0.2572	0.167	0.3208	-0.578
Mof_O 	O 	0.4902	0.0423	0.3869	-0.594
Mof_C 	C 	0.3959	0.1808	0.3181	0.556
Mof_C 	C 	0.4506	0.215	0.2824	-0.153
Mof_C 	C 	0.3468	0.2334	0.2541	0.001
Mof_C 	C 	0.3967	0.2683	0.2216	0.014
Mof_C 	C 	0.468	0.9093	0.4008	0.001
Mof_C 	C 	0.468	0.8425	0.4007	0.007
Mof_H 	H 	0.2413	0.2225	0.257	0.041
Mof_H 	H 	0.324	0.2807	0.2023	0.026
Mof_H 	H 	0.521	0.932	0.4209	0.036
Mof_H 	H 	0.5222	0.82	0.4208	0.025
Mof_O 	O 	0.998	0.667	0.3432	-0.603
Mof_O 	O 	0.7572	0.667	0.3208	-0.579
Mof_O 	O 	0.9902	0.5423	0.3869	-0.594
Mof_C 	C 	0.8959	0.6808	0.3181	0.558
Mof_C 	C 	0.9506	0.715	0.2824	-0.157
Mof_C 	C 	0.8468	0.7334	0.2541	0.005
Mof_C 	C 	0.8967	0.7683	0.2216	0.008
Mof_C 	C 	0.968	0.4093	0.4008	0.002
Mof_C 	C 	0.968	0.3425	0.4007	0.009
Mof_H 	H 	0.7413	0.7225	0.257	0.04
Mof_H 	H 	0.824	0.7807	0.2023	0.028
Mof_H 	H 	0.021	0.432	0.4209	0.035
Mof_H 	H 	0.0222	0.32	0.4208	0.024
Mof_O 	O 	0.998	0.167	0.8432	-0.6
Mof_O 	O 	0.7572	0.167	0.8208	-0.578
Mof_O 	O 	0.9902	0.0423	0.8869	-0.592
Mof_C 	C 	0.8959	0.1808	0.8181	0.554
Mof_C 	C 	0.9506	0.215	0.7824	-0.148
Mof_C 	C 	0.8468	0.2334	0.7541	-0.003
Mof_C 	C 	0.8967	0.2683	0.7216	0.019
Mof_C 	C 	0.968	0.9093	0.9008	0.001
Mof_C 	C 	0.968	0.8425	0.9007	0.007
Mof_H 	H 	0.7413	0.2225	0.757	0.043
Mof_H 	H 	0.824	0.2807	0.7023	0.025
Mof_H 	H 	0.021	0.932	0.9209	0.037
Mof_H 	H 	0.0222	0.82	0.9208	0.025
Mof_O 	O 	0.752	0.583	0.8432	-0.603
Mof_O 	O 	0.9928	0.583	0.8208	-0.578
Mof_O 	O 	0.7598	0.7077	0.8869	-0.594
Mof_C 	C 	0.8541	0.5692	0.8181	0.556
Mof_C 	C 	0.7994	0.535	0.7824	-0.154
Mof_C 	C 	0.9032	0.5166	0.7541	0.002
Mof_C 	C 	0.8533	0.4817	0.7216	0.014
Mof_C 	C 	0.782	0.8407	0.9008	0.001
Mof_C 	C 	0.782	0.9075	0.9007	0.008
Mof_H 	H 	0.0087	0.5275	0.757	0.041
Mof_H 	H 	0.926	0.4693	0.7023	0.026
Mof_H 	H 	0.729	0.818	0.9209	0.036
Mof_H 	H 	0.7278	0.93	0.9208	0.025
Mof_O 	O 	0.752	0.083	0.3432	-0.603
Mof_O 	O 	0.9928	0.083	0.3208	-0.577
Mof_O 	O 	0.7598	0.2077	0.3869	-0.594
Mof_C 	C 	0.8541	0.0692	0.3181	0.558
Mof_C 	C 	0.7994	0.035	0.2824	-0.159
Mof_C 	C 	0.9032	0.0166	0.2541	0.012
Mof_C 	C 	0.8533	0.9817	0.2216	0.006
Mof_C 	C 	0.782	0.3407	0.4008	0.002
Mof_C 	C 	0.782	0.4075	0.4007	0.007
Mof_H 	H 	0.0087	0.0275	0.257	0.036
Mof_H 	H 	0.926	0.9693	0.2023	0.028
Mof_H 	H 	0.729	0.318	0.4209	0.036
Mof_H 	H 	0.7278	0.43	0.4208	0.025
Mof_O 	O 	0.252	0.583	0.3432	-0.603
Mof_O 	O 	0.4928	0.583	0.3208	-0.578
Mof_O 	O 	0.2598	0.7077	0.3869	-0.594
Mof_C 	C 	0.3541	0.5692	0.3181	0.556
Mof_C 	C 	0.2994	0.535	0.2824	-0.153
Mof_C 	C 	0.4032	0.5166	0.2541	0.001
Mof_C 	C 	0.3533	0.4817	0.2216	0.015
Mof_C 	C 	0.282	0.8407	0.4008	0.002
Mof_C 	C 	0.282	0.9075	0.4007	0.007
Mof_H 	H 	0.5087	0.5275	0.257	0.042
Mof_H 	H 	0.426	0.4693	0.2023	0.026
Mof_H 	H 	0.229	0.818	0.4209	0.036
Mof_H 	H 	0.2278	0.93	0.4208	0.026
Mof_O 	O 	0.252	0.083	0.8432	-0.602
Mof_O 	O 	0.4928	0.083	0.8208	-0.578
Mof_O 	O 	0.2598	0.2077	0.8869	-0.594
Mof_C 	C 	0.3541	0.0692	0.8181	0.554
Mof_C 	C 	0.2994	0.035	0.7824	-0.148
Mof_C 	C 	0.4032	0.0166	0.7541	-0.005
Mof_C 	C 	0.3533	0.9817	0.7216	0.02
Mof_C 	C 	0.282	0.3407	0.9008	0.001
Mof_C 	C 	0.282	0.4075	0.9007	0.007
Mof_H 	H 	0.5087	0.0275	0.757	0.043
Mof_H 	H 	0.426	0.9693	0.7023	0.024
Mof_H 	H 	0.229	0.318	0.9209	0.036
Mof_H 	H 	0.2278	0.43	0.9208	0.025
Mof_Sc	Sc	0.375	0.375	0.63608	2.027
Mof_Sc	Sc	0.375	0.875	0.13608	2.027
Mof_Sc	Sc	0.875	0.375	0.13608	2.025
Mof_Sc	Sc	0.875	0.875	0.63608	2.022
Mof_Sc	Sc	0.375	0.375	0.11392	2.027
Mof_Sc	Sc	0.375	0.875	0.61392	2.027
Mof_Sc	Sc	0.875	0.375	0.61392	2.027
Mof_Sc	Sc	0.875	0.875	0.11392	2.02
Mof_Sc	Sc	0.625	0.625	0.36392	2.027
Mof_Sc	Sc	0.625	0.125	0.86392	2.027
Mof_Sc	Sc	0.125	0.625	0.86392	2.025
Mof_Sc	Sc	0.125	0.125	0.36392	2.022
Mof_Sc	Sc	0.625	0.625	0.88608	2.027
Mof_Sc	Sc	0.625	0.125	0.38608	2.027
Mof_Sc	Sc	0.125	0.625	0.38608	2.027
Mof_Sc	Sc	0.125	0.125	0.88608	2.02
Mof_C 	C 	0.125	0.4859	0.625	0.588
Mof_C 	C 	0.125	0.558	0.625	-0.175
Mof_C 	C 	0.125	0.9859	0.125	0.589
Mof_C 	C 	0.125	0.058	0.125	-0.177
Mof_C 	C 	0.625	0.9859	0.625	0.586
Mof_C 	C 	0.625	0.058	0.625	-0.174
Mof_C 	C 	0.625	0.2641	0.625	0.588
Mof_C 	C 	0.625	0.192	0.625	-0.176
Mof_C 	C 	0.625	0.7641	0.125	0.587
Mof_C 	C 	0.625	0.692	0.125	-0.175
Mof_C 	C 	0.625	0.4859	0.125	0.588
Mof_C 	C 	0.625	0.558	0.125	-0.175
Mof_C 	C 	0.125	0.2641	0.125	0.587
Mof_C 	C 	0.125	0.192	0.125	-0.175
Mof_C 	C 	0.125	0.7641	0.625	0.588
Mof_C 	C 	0.125	0.692	0.625	-0.176
Mof_C 	C 	0.875	0.5141	0.375	0.588
Mof_C 	C 	0.875	0.442	0.375	-0.175
Mof_C 	C 	0.875	0.0141	0.875	0.589
Mof_C 	C 	0.875	0.942	0.875	-0.177
Mof_C 	C 	0.375	0.7359	0.375	0.588
Mof_C 	C 	0.375	0.808	0.375	-0.176
Mof_C 	C 	0.375	0.2359	0.875	0.587
Mof_C 	C 	0.375	0.308	0.875	-0.175
Mof_C 	C 	0.375	0.5141	0.875	0.588
Mof_C 	C 	0.375	0.442	0.875	-0.175
Mof_C 	C 	0.375	0.0141	0.375	0.586
Mof_C 	C 	0.375	0.942	0.375	-0.174
Mof_C 	C 	0.875	0.7359	0.875	0.587
Mof_C 	C 	0.875	0.808	0.875	-0.175
Mof_C 	C 	0.875	0.2359	0.375	0.588
Mof_C 	C 	0.875	0.308	0.375	-0.176
_end
