data_functionalizedCrystal
_audit_creation_method	'EQeq! by Chris Wilmer'
_symmetry_space_group_name_H-M	'P1'
_symmetry_Int_Tables_number	1
_symmetry_cell_setting	triclinic
loop_
_symmetry_equiv_pos_as_xyz
  x,y,z
_cell_length_a	9.665
_cell_length_b	10.2569
_cell_length_c	10.3455
_cell_angle_alpha	119.717
_cell_angle_beta	94.5181
_cell_angle_gamma	90
loop_
_atom_site_label
_atom_site_type_symbol
_atom_site_fract_x
_atom_site_fract_y
_atom_site_fract_z
_atom_site_charge
Mof_Ca	Ca	0.75	0.07825	-0	0.981
Mof_Ca	Ca	0.25	0.92175	-0	0.911
Mof_H 	H 	0.7413	0.0451	0.3242	0.27
Mof_H 	H 	0.1889	0.9683	0.3652	0.063
Mof_H 	H 	0.7587	0.7209	0.6758	0.284
Mof_H 	H 	0.3111	0.6031	0.6348	0.098
Mof_H 	H 	0.2587	0.9549	0.6758	0.291
Mof_H 	H 	0.8111	0.0317	0.6348	0.091
Mof_H 	H 	0.2413	0.2791	0.3242	0.278
Mof_H 	H 	0.6889	0.3969	0.3652	0.056
Mof_C 	C 	0.9708	0.00447	0.22034	0.436
Mof_C 	C 	0.9842	0.00341	0.36602	-0.158
Mof_C 	C 	0.8694	0.02376	0.44852	0.232
Mof_C 	C 	0.1127	0.98075	0.4193	-0.108
Mof_C 	C 	0.5292	0.78413	0.77966	0.404
Mof_C 	C 	0.5158	0.63739	0.63398	-0.136
Mof_C 	C 	0.6306	0.57524	0.55148	0.227
Mof_C 	C 	0.3873	0.56145	0.5807	-0.098
Mof_C 	C 	0.0292	0.99553	0.77966	0.388
Mof_C 	C 	0.0158	0.99659	0.63398	-0.159
Mof_C 	C 	0.1306	0.97624	0.55148	0.241
Mof_C 	C 	0.8873	0.01925	0.5807	-0.066
Mof_C 	C 	0.4708	0.21587	0.22034	0.425
Mof_C 	C 	0.4842	0.36261	0.36602	-0.178
Mof_C 	C 	0.3694	0.42476	0.44852	0.248
Mof_C 	C 	0.6127	0.43855	0.4193	-0.076
Mof_O 	O 	0.849	0.01249	0.17058	-0.463
Mof_O 	O 	0.7407	0.04984	0.40568	-0.418
Mof_O 	O 	0.07584	0.99378	0.15616	-0.501
Mof_O 	O 	0.651	0.84191	0.82942	-0.353
Mof_O 	O 	0.7593	0.64416	0.59432	-0.438
Mof_O 	O 	0.42416	0.83762	0.84384	-0.341
Mof_O 	O 	0.151	0.98751	0.82942	-0.33
Mof_O 	O 	0.2593	0.95016	0.59432	-0.443
Mof_O 	O 	0.92416	0.00622	0.84384	-0.317
Mof_O 	O 	0.349	0.15809	0.17058	-0.439
Mof_O 	O 	0.2407	0.35584	0.40568	-0.423
Mof_O 	O 	0.57584	0.16238	0.15616	-0.479
_end
