data_functionalizedCrystal
_audit_creation_method	'EQeq! by Chris Wilmer'
_symmetry_space_group_name_H-M	'P1'
_symmetry_Int_Tables_number	1
_symmetry_cell_setting	triclinic
loop_
_symmetry_equiv_pos_as_xyz
  x,y,z
_cell_length_a	18.5
_cell_length_b	18.5
_cell_length_c	19.4042
_cell_angle_alpha	61.5299
_cell_angle_beta	61.5299
_cell_angle_gamma	60
loop_
_atom_site_label
_atom_site_type_symbol
_atom_site_fract_x
_atom_site_fract_y
_atom_site_fract_z
_atom_site_charge
Mof_Cu	Cu	0.51169	0.95594	0.57431	0.97
Mof_Cu	Cu	0.48831	0.04406	0.42569	0.97
Mof_Cu	Cu	0.95806	0.51169	0.57431	0.969
Mof_Cu	Cu	0.04194	0.48831	0.42569	0.969
Mof_Cu	Cu	0.95594	0.95806	0.57431	0.965
Mof_Cu	Cu	0.04406	0.04194	0.42569	0.965
Mof_H 	H 	0.99169	0.26097	0.48383	0.043
Mof_H 	H 	0.144	0.9866	0.27103	0.042
Mof_H 	H 	0.37209	0.0904	0.33694	0.028
Mof_H 	H 	0.34456	0.39174	0.17842	0.037
Mof_H 	H 	0.79943	0.62791	0.66306	0.029
Mof_H 	H 	0.71035	0.75361	0.9909	0.052
Mof_H 	H 	0.41372	0.56294	0.00557	0.074
Mof_H 	H 	0.28965	0.24639	0.0091	0.052
Mof_H 	H 	0.66682	0.78583	0.77883	0.044
Mof_H 	H 	0.45486	0.28965	0.0091	0.055
Mof_H 	H 	0.91472	0.65544	0.82158	0.036
Mof_H 	H 	0.9096	0.79943	0.66306	0.028
Mof_H 	H 	0.5516	0.27937	0.16384	0.063
Mof_H 	H 	0.69968	0.4023	0.86897	0.052
Mof_H 	H 	0.79642	0.38551	0.66716	0.062
Mof_H 	H 	0.43152	0.74489	0.11597	0.053
Mof_H 	H 	0.97095	0.30032	0.13103	0.054
Mof_H 	H 	0.21417	0.23148	0.22117	0.044
Mof_H 	H 	0.56294	0.01777	0.00557	0.07
Mof_H 	H 	0.60929	0.21924	0.3356	0.052
Mof_H 	H 	0.59837	0.144	0.27103	0.036
Mof_H 	H 	0.0134	0.40163	0.72897	0.036
Mof_H 	H 	0.65544	0.60826	0.82158	0.037
Mof_H 	H 	0.27937	0.00519	0.16384	0.06
Mof_H 	H 	0.75361	0.54514	0.9909	0.053
Mof_H 	H 	0.4484	0.72063	0.83616	0.063
Mof_H 	H 	0.16413	0.39071	0.6644	0.052
Mof_H 	H 	0.61449	0.84909	0.33284	0.062
Mof_H 	H 	0.26351	0.99169	0.48383	0.043
Mof_H 	H 	0.43706	0.98223	0.99443	0.07
Mof_H 	H 	0.38551	0.15091	0.66716	0.062
Mof_H 	H 	0.15091	0.79642	0.66716	0.062
Mof_H 	H 	0.56848	0.25511	0.88403	0.053
Mof_H 	H 	0.5977	0.97095	0.13103	0.053
Mof_H 	H 	0.72063	0.99481	0.83616	0.06
Mof_H 	H 	0.00831	0.73903	0.51617	0.043
Mof_H 	H 	0.4023	0.02905	0.86897	0.053
Mof_H 	H 	0.39071	0.78076	0.6644	0.052
Mof_H 	H 	0.02905	0.69968	0.86897	0.054
Mof_H 	H 	0.00519	0.5516	0.16384	0.063
Mof_H 	H 	0.35168	0.35142	0.10693	0.022
Mof_H 	H 	0.29238	0.56848	0.88403	0.053
Mof_H 	H 	0.64858	0.81003	0.89307	0.022
Mof_H 	H 	0.40163	0.856	0.72897	0.036
Mof_H 	H 	0.73903	0.73649	0.51617	0.042
Mof_H 	H 	0.20358	0.61449	0.33284	0.062
Mof_H 	H 	0.78076	0.16413	0.6644	0.053
Mof_H 	H 	0.60826	0.91472	0.82158	0.037
Mof_H 	H 	0.35142	0.18997	0.10693	0.022
Mof_H 	H 	0.81003	0.64832	0.89307	0.022
Mof_H 	H 	0.21924	0.83587	0.3356	0.053
Mof_H 	H 	0.33318	0.21417	0.22117	0.044
Mof_H 	H 	0.74489	0.70762	0.11597	0.054
Mof_H 	H 	0.9866	0.59837	0.27103	0.036
Mof_H 	H 	0.99481	0.4484	0.83616	0.063
Mof_H 	H 	0.83587	0.60929	0.3356	0.052
Mof_H 	H 	0.08528	0.34456	0.17842	0.036
Mof_H 	H 	0.73649	0.00831	0.51617	0.043
Mof_H 	H 	0.18997	0.35168	0.10693	0.022
Mof_H 	H 	0.30032	0.5977	0.13103	0.052
Mof_H 	H 	0.39174	0.08528	0.17842	0.037
Mof_H 	H 	0.58628	0.43706	0.99443	0.074
Mof_H 	H 	0.25511	0.29238	0.88403	0.054
Mof_H 	H 	0.62791	0.9096	0.66306	0.028
Mof_H 	H 	0.78583	0.76852	0.77883	0.044
Mof_H 	H 	0.26097	0.26351	0.48383	0.042
Mof_H 	H 	0.20057	0.37209	0.33694	0.029
Mof_H 	H 	0.0904	0.20057	0.33694	0.028
Mof_H 	H 	0.01777	0.41372	0.00557	0.068
Mof_H 	H 	0.54514	0.71035	0.9909	0.055
Mof_H 	H 	0.23148	0.33318	0.22117	0.044
Mof_H 	H 	0.76852	0.66682	0.77883	0.044
Mof_H 	H 	0.64832	0.64858	0.89307	0.022
Mof_H 	H 	0.84909	0.20358	0.33284	0.062
Mof_H 	H 	0.70762	0.43152	0.11597	0.053
Mof_H 	H 	0.856	0.0134	0.72897	0.042
Mof_H 	H 	0.24639	0.45486	0.0091	0.053
Mof_H 	H 	0.98223	0.58628	0.99443	0.068
Mof_C 	C 	0.22468	0.57265	0.90824	-0.034
Mof_C 	C 	0.16346	0.64153	0.8684	0.068
Mof_C 	C 	0.42735	0.70557	0.09176	-0.031
Mof_C 	C 	0.80191	0.49213	0.0206	-0.081
Mof_C 	C 	0.05579	0.61367	0.45359	0.386
Mof_C 	C 	0.58178	0.39794	0.97028	-0.087
Mof_C 	C 	0.60206	0.95	0.02972	-0.077
Mof_C 	C 	0.1604	0.41372	0.29656	0.05
Mof_C 	C 	0.60233	0.06738	0.46322	0.391
Mof_C 	C 	0.33634	0.88909	0.56747	-0.115
Mof_C 	C 	0.81266	0.2114	0.63734	-0.002
Mof_C 	C 	0.5119	0.36781	0.01	0.155
Mof_C 	C 	0.11091	0.7929	0.43253	-0.114
Mof_C 	C 	0.2071	0.33634	0.56747	-0.116
Mof_C 	C 	0.32661	0.16346	0.8684	0.068
Mof_C 	C 	0.07634	0.64629	0.89999	-0.033
Mof_C 	C 	0.16048	0.03987	0.26092	0.04
Mof_C 	C 	0.03987	0.53873	0.26092	0.05
Mof_C 	C 	0.21938	0.72577	0.32501	0.052
Mof_C 	C 	0.10098	0.67196	0.42641	-0.116
Mof_C 	C 	0.17666	0.38938	0.232	-0.085
Mof_C 	C 	0.87068	0.8396	0.70344	0.048
Mof_C 	C 	0.05129	0.51301	0.19858	-0.07
Mof_C 	C 	0.20196	0.17666	0.232	-0.084
Mof_C 	C 	0.83952	0.96013	0.73908	0.04
Mof_C 	C 	0.79804	0.82334	0.768	-0.084
Mof_C 	C 	0.88971	0.4881	0.99	0.148
Mof_C 	C 	0.46127	0.83952	0.73908	0.05
Mof_C 	C 	0.73367	0.73276	0.46478	0.065
Mof_C 	C 	0.56578	0.73927	0.81336	0.039
Mof_C 	C 	0.48699	0.76288	0.80142	-0.07
Mof_C 	C 	0.12159	0.39058	0.13609	0.024
Mof_C 	C 	0.76288	0.94871	0.80142	-0.067
Mof_C 	C 	0.35847	0.67339	0.1316	0.065
Mof_C 	C 	0.37738	0.07634	0.89999	-0.033
Mof_C 	C 	0.43422	0.26073	0.18664	0.039
Mof_C 	C 	0.72577	0.72984	0.32501	0.051
Mof_C 	C 	0.19935	0.89902	0.57359	-0.115
Mof_C 	C 	0.18734	0.7886	0.36266	-0.002
Mof_C 	C 	0.67196	0.80065	0.42641	-0.116
Mof_C 	C 	0.86707	0.60233	0.46322	0.391
Mof_C 	C 	0.12305	0.94421	0.54641	0.385
Mof_C 	C 	0.68536	0.80191	0.0206	-0.078
Mof_C 	C 	0.8396	0.58628	0.70344	0.05
Mof_C 	C 	0.39058	0.35174	0.13609	0.025
Mof_C 	C 	0.26724	0.93121	0.53522	0.065
Mof_C 	C 	0.27423	0.27016	0.67499	0.051
Mof_C 	C 	0.29443	0.22468	0.90824	-0.035
Mof_C 	C 	0.67339	0.83654	0.1316	0.068
Mof_C 	C 	0.64826	0.87841	0.86391	0.025
Mof_C 	C 	0.92366	0.35371	0.10001	-0.033
Mof_C 	C 	0.7886	0.6614	0.36266	-0.002
Mof_C 	C 	0.41822	0.60206	0.02972	-0.087
Mof_C 	C 	0.60942	0.64826	0.86391	0.025
Mof_C 	C 	0.4881	0.63219	0.99	0.155
Mof_C 	C 	0.80065	0.10098	0.42641	-0.115
Mof_C 	C 	0.58628	0.87068	0.70344	0.05
Mof_C 	C 	0.11029	0.5119	0.01	0.148
Mof_C 	C 	0.32804	0.19935	0.57359	-0.116
Mof_C 	C 	0.05	0.58178	0.97028	-0.076
Mof_C 	C 	0.96013	0.46127	0.73908	0.05
Mof_C 	C 	0.79707	0.1776	0.35978	0.003
Mof_C 	C 	0.50787	0.31464	0.9794	-0.087
Mof_C 	C 	0.26073	0.11841	0.18664	0.038
Mof_C 	C 	0.26633	0.26724	0.53522	0.065
Mof_C 	C 	0.73276	0.06879	0.46478	0.065
Mof_C 	C 	0.94421	0.38633	0.54641	0.386
Mof_C 	C 	0.35371	0.62262	0.10001	-0.029
Mof_C 	C 	0.36781	0.11029	0.01	0.145
Mof_C 	C 	0.33445	0.20293	0.64022	0.003
Mof_C 	C 	0.35174	0.12159	0.13609	0.025
Mof_C 	C 	0.27016	0.78062	0.67499	0.052
Mof_C 	C 	0.94871	0.48699	0.80142	-0.07
Mof_C 	C 	0.83654	0.35847	0.1316	0.068
Mof_C 	C 	0.8224	0.33445	0.64022	0.003
Mof_C 	C 	0.72984	0.21938	0.32501	0.052
Mof_C 	C 	0.06738	0.86707	0.46322	0.39
Mof_C 	C 	0.66366	0.11091	0.43253	-0.115
Mof_C 	C 	0.88909	0.2071	0.56747	-0.114
Mof_C 	C 	0.39794	0.05	0.97028	-0.077
Mof_C 	C 	0.6614	0.18734	0.36266	-0.002
Mof_C 	C 	0.38633	0.12305	0.54641	0.386
Mof_C 	C 	0.3386	0.81266	0.63734	-0.002
Mof_C 	C 	0.64153	0.32661	0.8684	0.065
Mof_C 	C 	0.41372	0.12932	0.29656	0.05
Mof_C 	C 	0.87695	0.05579	0.45359	0.385
Mof_C 	C 	0.95	0.41822	0.02972	-0.076
Mof_C 	C 	0.89902	0.32804	0.57359	-0.116
Mof_C 	C 	0.93262	0.13293	0.53678	0.39
Mof_C 	C 	0.38938	0.20196	0.232	-0.085
Mof_C 	C 	0.23712	0.05129	0.19858	-0.067
Mof_C 	C 	0.51301	0.23712	0.19858	-0.07
Mof_C 	C 	0.66555	0.79707	0.35978	0.003
Mof_C 	C 	0.57265	0.29443	0.90824	-0.031
Mof_C 	C 	0.39767	0.93262	0.53678	0.391
Mof_C 	C 	0.70557	0.77532	0.09176	-0.035
Mof_C 	C 	0.7929	0.66366	0.43253	-0.116
Mof_C 	C 	0.49213	0.68536	0.0206	-0.087
Mof_C 	C 	0.19809	0.50787	0.9794	-0.081
Mof_C 	C 	0.61062	0.79804	0.768	-0.085
Mof_C 	C 	0.1776	0.66555	0.35978	0.003
Mof_C 	C 	0.82334	0.61062	0.768	-0.085
Mof_C 	C 	0.61367	0.87695	0.45359	0.386
Mof_C 	C 	0.87841	0.60942	0.86391	0.024
Mof_C 	C 	0.73927	0.88159	0.81336	0.038
Mof_C 	C 	0.13293	0.39767	0.53678	0.391
Mof_C 	C 	0.63219	0.88971	0.99	0.145
Mof_C 	C 	0.20293	0.8224	0.64022	0.003
Mof_C 	C 	0.64629	0.37738	0.89999	-0.029
Mof_C 	C 	0.11841	0.43422	0.18664	0.039
Mof_C 	C 	0.78062	0.27423	0.67499	0.052
Mof_C 	C 	0.53873	0.16048	0.26092	0.05
Mof_C 	C 	0.88159	0.56578	0.81336	0.039
Mof_C 	C 	0.93121	0.26633	0.53522	0.065
Mof_C 	C 	0.06879	0.73367	0.46478	0.065
Mof_C 	C 	0.77532	0.42735	0.09176	-0.034
Mof_C 	C 	0.62262	0.92366	0.10001	-0.033
Mof_C 	C 	0.31464	0.19809	0.9794	-0.078
Mof_C 	C 	0.12932	0.1604	0.29656	0.048
Mof_C 	C 	0.2114	0.3386	0.63734	-0.002
Mof_N 	N 	0.71178	0.27345	0.75227	-0.078
Mof_N 	N 	0.51567	0.88679	0.6867	-0.189
Mof_N 	N 	0.91084	0.51567	0.6867	-0.189
Mof_N 	N 	0.70633	0.31402	0.79313	-0.081
Mof_N 	N 	0.81348	0.29367	0.20687	-0.082
Mof_N 	N 	0.08916	0.48433	0.3133	-0.189
Mof_N 	N 	0.31402	0.18652	0.79313	-0.082
Mof_N 	N 	0.28822	0.72655	0.24773	-0.078
Mof_N 	N 	0.27345	0.2625	0.75227	-0.078
Mof_N 	N 	0.68598	0.81348	0.20687	-0.082
Mof_N 	N 	0.2625	0.71178	0.75227	-0.078
Mof_N 	N 	0.72655	0.7375	0.24773	-0.078
Mof_N 	N 	0.88679	0.91084	0.6867	-0.189
Mof_N 	N 	0.18652	0.70633	0.79313	-0.082
Mof_N 	N 	0.11321	0.08916	0.3133	-0.189
Mof_N 	N 	0.48433	0.11321	0.3133	-0.189
Mof_N 	N 	0.29367	0.68598	0.20687	-0.081
Mof_N 	N 	0.7375	0.28822	0.24773	-0.078
Mof_O 	O 	0.98799	0.13572	0.46535	-0.409
Mof_O 	O 	0.87252	0.00319	0.52604	-0.411
Mof_O 	O 	0.39163	0.08084	0.07717	-0.223
Mof_O 	O 	0.05454	0.92589	0.59552	-0.418
Mof_O 	O 	0.92589	0.42405	0.59552	-0.421
Mof_O 	O 	0.12748	0.99681	0.47396	-0.411
Mof_O 	O 	0.45036	0.39163	0.07717	-0.225
Mof_O 	O 	0.58906	0.01201	0.53465	-0.411
Mof_O 	O 	0.07411	0.57595	0.40448	-0.421
Mof_O 	O 	0.91582	0.06435	0.58529	-0.427
Mof_O 	O 	0.08084	0.45036	0.07717	-0.223
Mof_O 	O 	0.43454	0.91582	0.58529	-0.429
Mof_O 	O 	0.59825	0.87252	0.52604	-0.415
Mof_O 	O 	0.56546	0.08418	0.41471	-0.429
Mof_O 	O 	0.91916	0.54964	0.92283	-0.223
Mof_O 	O 	0.40175	0.12748	0.47396	-0.415
Mof_O 	O 	0.60837	0.91916	0.92283	-0.223
Mof_O 	O 	0.93565	0.56546	0.41471	-0.429
Mof_O 	O 	0.94546	0.07411	0.40448	-0.418
Mof_O 	O 	0.86428	0.58906	0.53465	-0.412
Mof_O 	O 	0.41094	0.98799	0.46535	-0.411
Mof_O 	O 	0.99681	0.40175	0.47396	-0.414
Mof_O 	O 	0.54964	0.60837	0.92283	-0.225
Mof_O 	O 	0.42405	0.05454	0.59552	-0.421
Mof_O 	O 	0.08418	0.93565	0.41471	-0.427
Mof_O 	O 	0.13572	0.41094	0.46535	-0.412
Mof_O 	O 	0.06435	0.43454	0.58529	-0.429
Mof_O 	O 	0.01201	0.86428	0.53465	-0.409
Mof_O 	O 	0.57595	0.94546	0.40448	-0.421
Mof_O 	O 	0.00319	0.59825	0.52604	-0.414
_end
