data_functionalizedCrystal
_audit_creation_method	'EQeq! by Chris Wilmer'
_symmetry_space_group_name_H-M	'P1'
_symmetry_Int_Tables_number	1
_symmetry_cell_setting	triclinic
loop_
_symmetry_equiv_pos_as_xyz
  x,y,z
_cell_length_a	30.2875
_cell_length_b	30.2875
_cell_length_c	30.2875
_cell_angle_alpha	60
_cell_angle_beta	60
_cell_angle_gamma	60
loop_
_atom_site_label
_atom_site_type_symbol
_atom_site_fract_x
_atom_site_fract_y
_atom_site_fract_z
_atom_site_charge
Mof_Cu	Cu	0.35039	0.64961	-0	0.855
Mof_Cu	Cu	0.26244	0.73756	-0	0.859
Mof_Cu	Cu	0.64961	0.35039	-0	0.855
Mof_Cu	Cu	0.73756	0.26244	-0	0.859
Mof_Cu	Cu	1.15735e-17	0	0.35039	0.803
Mof_Cu	Cu	5.78675e-18	0	0.26244	0.803
Mof_Cu	Cu	6.9441e-17	0	0.64961	0.804
Mof_Cu	Cu	-0	-4.6294e-17	0.73756	0.81
Mof_Cu	Cu	0.35039	0	-0	0.803
Mof_Cu	Cu	0.26244	0	-0	0.803
Mof_Cu	Cu	0.64961	0	-0	0.804
Mof_Cu	Cu	0.73756	0	-0	0.81
Mof_Cu	Cu	6.9441e-17	0.35039	0.64961	0.856
Mof_Cu	Cu	-0	0.26244	0.73756	0.86
Mof_Cu	Cu	-3.47205e-17	0.64961	0.35039	0.856
Mof_Cu	Cu	9.83748e-17	0.73756	0.26244	0.86
Mof_Cu	Cu	0.35039	0	0.64961	0.856
Mof_Cu	Cu	0.26244	-4.6294e-17	0.73756	0.86
Mof_Cu	Cu	0.64961	0	0.35039	0.856
Mof_Cu	Cu	0.73756	0	0.26244	0.86
Mof_Cu	Cu	-0	0.64961	-0	0.805
Mof_Cu	Cu	-0	0.73756	-0	0.811
Mof_Cu	Cu	-0	0.35039	-0	0.804
Mof_Cu	Cu	-0	0.26244	-0	0.804
Mof_H 	H 	0.3028	0.5586	0.9688	0.067
Mof_H 	H 	0.5586	0.3028	0.1698	0.04
Mof_H 	H 	0.9688	0.1698	0.3028	0.057
Mof_H 	H 	0.1698	0.9688	0.5586	0.06
Mof_H 	H 	0.3028	0.9688	0.1698	0.057
Mof_H 	H 	0.5586	0.1698	0.9688	0.06
Mof_H 	H 	0.9688	0.3028	0.5586	0.067
Mof_H 	H 	0.1698	0.5586	0.3028	0.04
Mof_H 	H 	0.3028	0.1698	0.5586	0.04
Mof_H 	H 	0.5586	0.9688	0.3028	0.067
Mof_H 	H 	0.9688	0.5586	0.1698	0.06
Mof_H 	H 	0.1698	0.3028	0.9688	0.057
Mof_H 	H 	0.4414	0.6972	0.0312	0.043
Mof_H 	H 	0.6972	0.4414	0.8302	0.07
Mof_H 	H 	0.8302	0.0312	0.6972	0.056
Mof_H 	H 	0.0312	0.8302	0.4414	0.053
Mof_H 	H 	0.0312	0.6972	0.8302	0.056
Mof_H 	H 	0.8302	0.4414	0.0312	0.053
Mof_H 	H 	0.6972	0.0312	0.4414	0.043
Mof_H 	H 	0.4414	0.8302	0.6972	0.07
Mof_H 	H 	0.8302	0.6972	0.4414	0.07
Mof_H 	H 	0.0312	0.4414	0.6972	0.043
Mof_H 	H 	0.4414	0.0312	0.8302	0.053
Mof_H 	H 	0.6972	0.8302	0.0312	0.056
Mof_H 	H 	0.6972	0.4414	0.0312	0.043
Mof_H 	H 	0.4414	0.6972	0.8302	0.07
Mof_H 	H 	0.0312	0.8302	0.6972	0.056
Mof_H 	H 	0.8302	0.0312	0.4414	0.053
Mof_H 	H 	0.6972	0.0312	0.8302	0.056
Mof_H 	H 	0.4414	0.8302	0.0312	0.053
Mof_H 	H 	0.0312	0.6972	0.4414	0.043
Mof_H 	H 	0.8302	0.4414	0.6972	0.07
Mof_H 	H 	0.6972	0.8302	0.4414	0.07
Mof_H 	H 	0.4414	0.0312	0.6972	0.043
Mof_H 	H 	0.0312	0.4414	0.8302	0.053
Mof_H 	H 	0.8302	0.6972	0.0312	0.056
Mof_H 	H 	0.5586	0.3028	0.9688	0.067
Mof_H 	H 	0.3028	0.5586	0.1698	0.04
Mof_H 	H 	0.1698	0.9688	0.3028	0.057
Mof_H 	H 	0.9688	0.1698	0.5586	0.06
Mof_H 	H 	0.9688	0.3028	0.1698	0.057
Mof_H 	H 	0.1698	0.5586	0.9688	0.06
Mof_H 	H 	0.3028	0.9688	0.5586	0.067
Mof_H 	H 	0.5586	0.1698	0.3028	0.04
Mof_H 	H 	0.1698	0.3028	0.5586	0.04
Mof_H 	H 	0.9688	0.5586	0.3028	0.067
Mof_H 	H 	0.5586	0.9688	0.1698	0.06
Mof_H 	H 	0.3028	0.1698	0.9688	0.057
Mof_H 	H 	0.1651	0.6861	0.9837	0.068
Mof_H 	H 	0.6861	0.1651	0.1651	0.035
Mof_H 	H 	0.9837	0.1651	0.1651	0.054
Mof_H 	H 	0.1651	0.9837	0.6861	0.068
Mof_H 	H 	0.1651	0.9837	0.1651	0.054
Mof_H 	H 	0.6861	0.1651	0.9837	0.068
Mof_H 	H 	0.9837	0.1651	0.6861	0.068
Mof_H 	H 	0.1651	0.6861	0.1651	0.035
Mof_H 	H 	0.1651	0.1651	0.6861	0.035
Mof_H 	H 	0.6861	0.9837	0.1651	0.068
Mof_H 	H 	0.9837	0.6861	0.1651	0.068
Mof_H 	H 	0.1651	0.1651	0.9837	0.054
Mof_H 	H 	0.3139	0.8349	0.0163	0.044
Mof_H 	H 	0.8349	0.3139	0.8349	0.074
Mof_H 	H 	0.8349	0.0163	0.8349	0.06
Mof_H 	H 	0.0163	0.8349	0.3139	0.044
Mof_H 	H 	0.0163	0.8349	0.8349	0.06
Mof_H 	H 	0.8349	0.3139	0.0163	0.044
Mof_H 	H 	0.8349	0.0163	0.3139	0.044
Mof_H 	H 	0.3139	0.8349	0.8349	0.074
Mof_H 	H 	0.8349	0.8349	0.3139	0.074
Mof_H 	H 	0.0163	0.3139	0.8349	0.044
Mof_H 	H 	0.3139	0.0163	0.8349	0.044
Mof_H 	H 	0.8349	0.8349	0.0163	0.06
Mof_H 	H 	0.2614	0.3946	0.9494	0.105
Mof_H 	H 	0.3946	0.2614	0.3946	0.094
Mof_H 	H 	0.9494	0.3946	0.2614	0.105
Mof_H 	H 	0.3946	0.9494	0.3946	0.11
Mof_H 	H 	0.2614	0.9494	0.3946	0.105
Mof_H 	H 	0.3946	0.3946	0.9494	0.11
Mof_H 	H 	0.9494	0.2614	0.3946	0.105
Mof_H 	H 	0.3946	0.3946	0.2614	0.094
Mof_H 	H 	0.2614	0.3946	0.3946	0.094
Mof_H 	H 	0.3946	0.9494	0.2614	0.105
Mof_H 	H 	0.9494	0.3946	0.3946	0.11
Mof_H 	H 	0.3946	0.2614	0.9494	0.105
Mof_H 	H 	0.6054	0.7386	0.0506	0.101
Mof_H 	H 	0.7386	0.6054	0.6054	0.111
Mof_H 	H 	0.6054	0.0506	0.7386	0.101
Mof_H 	H 	0.0506	0.6054	0.6054	0.096
Mof_H 	H 	0.0506	0.7386	0.6054	0.101
Mof_H 	H 	0.6054	0.6054	0.0506	0.096
Mof_H 	H 	0.7386	0.0506	0.6054	0.101
Mof_H 	H 	0.6054	0.6054	0.7386	0.111
Mof_H 	H 	0.6054	0.7386	0.6054	0.111
Mof_H 	H 	0.0506	0.6054	0.7386	0.101
Mof_H 	H 	0.6054	0.0506	0.6054	0.096
Mof_H 	H 	0.7386	0.6054	0.0506	0.101
Mof_C 	C 	0.26402	0.6516	0.98414	0.336
Mof_C 	C 	0.23808	0.62646	0.97706	-0.062
Mof_C 	C 	0.26613	0.57621	0.97039	-0.02
Mof_C 	C 	0.6516	0.26402	0.10024	0.347
Mof_C 	C 	0.62646	0.23808	0.1584	-0.107
Mof_C 	C 	0.57621	0.26613	0.18727	-0.006
Mof_C 	C 	0.98414	0.10024	0.26402	0.338
Mof_C 	C 	0.97706	0.1584	0.23808	-0.079
Mof_C 	C 	0.97039	0.18727	0.26613	-0.015
Mof_C 	C 	0.10024	0.98414	0.6516	0.335
Mof_C 	C 	0.1584	0.97706	0.62646	-0.068
Mof_C 	C 	0.18727	0.97039	0.57621	-0.02
Mof_C 	C 	0.26402	0.98414	0.10024	0.338
Mof_C 	C 	0.23808	0.97706	0.1584	-0.079
Mof_C 	C 	0.26613	0.97039	0.18727	-0.015
Mof_C 	C 	0.6516	0.10024	0.98414	0.335
Mof_C 	C 	0.62646	0.1584	0.97706	-0.068
Mof_C 	C 	0.57621	0.18727	0.97039	-0.02
Mof_C 	C 	0.98414	0.26402	0.6516	0.336
Mof_C 	C 	0.97706	0.23808	0.62646	-0.062
Mof_C 	C 	0.97039	0.26613	0.57621	-0.02
Mof_C 	C 	0.10024	0.6516	0.26402	0.347
Mof_C 	C 	0.1584	0.62646	0.23808	-0.107
Mof_C 	C 	0.18727	0.57621	0.26613	-0.006
Mof_C 	C 	0.26402	0.10024	0.6516	0.347
Mof_C 	C 	0.23808	0.1584	0.62646	-0.107
Mof_C 	C 	0.26613	0.18727	0.57621	-0.006
Mof_C 	C 	0.6516	0.98414	0.26402	0.336
Mof_C 	C 	0.62646	0.97706	0.23808	-0.062
Mof_C 	C 	0.57621	0.97039	0.26613	-0.02
Mof_C 	C 	0.98414	0.6516	0.10024	0.335
Mof_C 	C 	0.97706	0.62646	0.1584	-0.068
Mof_C 	C 	0.97039	0.57621	0.18727	-0.02
Mof_C 	C 	0.10024	0.26402	0.98414	0.338
Mof_C 	C 	0.1584	0.23808	0.97706	-0.079
Mof_C 	C 	0.18727	0.26613	0.97039	-0.015
Mof_C 	C 	0.3484	0.73598	0.01586	0.346
Mof_C 	C 	0.37354	0.76192	0.02294	-0.099
Mof_C 	C 	0.42379	0.73387	0.02961	-0.009
Mof_C 	C 	0.73598	0.3484	0.89976	0.335
Mof_C 	C 	0.76192	0.37354	0.8416	-0.056
Mof_C 	C 	0.73387	0.42379	0.81273	-0.022
Mof_C 	C 	0.89976	0.01586	0.73598	0.335
Mof_C 	C 	0.8416	0.02294	0.76192	-0.076
Mof_C 	C 	0.81273	0.02961	0.73387	-0.018
Mof_C 	C 	0.01586	0.89976	0.3484	0.338
Mof_C 	C 	0.02294	0.8416	0.37354	-0.089
Mof_C 	C 	0.02961	0.81273	0.42379	-0.012
Mof_C 	C 	0.01586	0.73598	0.89976	0.335
Mof_C 	C 	0.02294	0.76192	0.8416	-0.076
Mof_C 	C 	0.02961	0.73387	0.81273	-0.018
Mof_C 	C 	0.89976	0.3484	0.01586	0.338
Mof_C 	C 	0.8416	0.37354	0.02294	-0.089
Mof_C 	C 	0.81273	0.42379	0.02961	-0.012
Mof_C 	C 	0.73598	0.01586	0.3484	0.346
Mof_C 	C 	0.76192	0.02294	0.37354	-0.099
Mof_C 	C 	0.73387	0.02961	0.42379	-0.009
Mof_C 	C 	0.3484	0.89976	0.73598	0.335
Mof_C 	C 	0.37354	0.8416	0.76192	-0.056
Mof_C 	C 	0.42379	0.81273	0.73387	-0.022
Mof_C 	C 	0.89976	0.73598	0.3484	0.335
Mof_C 	C 	0.8416	0.76192	0.37354	-0.056
Mof_C 	C 	0.81273	0.73387	0.42379	-0.022
Mof_C 	C 	0.01586	0.3484	0.73598	0.346
Mof_C 	C 	0.02294	0.37354	0.76192	-0.099
Mof_C 	C 	0.02961	0.42379	0.73387	-0.009
Mof_C 	C 	0.3484	0.01586	0.89976	0.338
Mof_C 	C 	0.37354	0.02294	0.8416	-0.089
Mof_C 	C 	0.42379	0.02961	0.81273	-0.012
Mof_C 	C 	0.73598	0.89976	0.01586	0.335
Mof_C 	C 	0.76192	0.8416	0.02294	-0.076
Mof_C 	C 	0.73387	0.81273	0.02961	-0.018
Mof_C 	C 	0.73598	0.3484	0.01586	0.346
Mof_C 	C 	0.76192	0.37354	0.02294	-0.099
Mof_C 	C 	0.73387	0.42379	0.02961	-0.009
Mof_C 	C 	0.3484	0.73598	0.89976	0.335
Mof_C 	C 	0.37354	0.76192	0.8416	-0.056
Mof_C 	C 	0.42379	0.73387	0.81273	-0.022
Mof_C 	C 	0.01586	0.89976	0.73598	0.335
Mof_C 	C 	0.02294	0.8416	0.76192	-0.076
Mof_C 	C 	0.02961	0.81273	0.73387	-0.018
Mof_C 	C 	0.89976	0.01586	0.3484	0.338
Mof_C 	C 	0.8416	0.02294	0.37354	-0.089
Mof_C 	C 	0.81273	0.02961	0.42379	-0.012
Mof_C 	C 	0.73598	0.01586	0.89976	0.335
Mof_C 	C 	0.76192	0.02294	0.8416	-0.076
Mof_C 	C 	0.73387	0.02961	0.81273	-0.018
Mof_C 	C 	0.3484	0.89976	0.01586	0.338
Mof_C 	C 	0.37354	0.8416	0.02294	-0.089
Mof_C 	C 	0.42379	0.81273	0.02961	-0.012
Mof_C 	C 	0.01586	0.73598	0.3484	0.346
Mof_C 	C 	0.02294	0.76192	0.37354	-0.099
Mof_C 	C 	0.02961	0.73387	0.42379	-0.009
Mof_C 	C 	0.89976	0.3484	0.73598	0.335
Mof_C 	C 	0.8416	0.37354	0.76192	-0.056
Mof_C 	C 	0.81273	0.42379	0.73387	-0.022
Mof_C 	C 	0.73598	0.89976	0.3484	0.335
Mof_C 	C 	0.76192	0.8416	0.37354	-0.056
Mof_C 	C 	0.73387	0.81273	0.42379	-0.022
Mof_C 	C 	0.3484	0.01586	0.73598	0.346
Mof_C 	C 	0.37354	0.02294	0.76192	-0.099
Mof_C 	C 	0.42379	0.02961	0.73387	-0.009
Mof_C 	C 	0.01586	0.3484	0.89976	0.338
Mof_C 	C 	0.02294	0.37354	0.8416	-0.089
Mof_C 	C 	0.02961	0.42379	0.81273	-0.012
Mof_C 	C 	0.89976	0.73598	0.01586	0.335
Mof_C 	C 	0.8416	0.76192	0.02294	-0.076
Mof_C 	C 	0.81273	0.73387	0.02961	-0.018
Mof_C 	C 	0.6516	0.26402	0.98414	0.336
Mof_C 	C 	0.62646	0.23808	0.97706	-0.062
Mof_C 	C 	0.57621	0.26613	0.97039	-0.02
Mof_C 	C 	0.26402	0.6516	0.10024	0.347
Mof_C 	C 	0.23808	0.62646	0.1584	-0.107
Mof_C 	C 	0.26613	0.57621	0.18727	-0.006
Mof_C 	C 	0.10024	0.98414	0.26402	0.338
Mof_C 	C 	0.1584	0.97706	0.23808	-0.079
Mof_C 	C 	0.18727	0.97039	0.26613	-0.015
Mof_C 	C 	0.98414	0.10024	0.6516	0.335
Mof_C 	C 	0.97706	0.1584	0.62646	-0.068
Mof_C 	C 	0.97039	0.18727	0.57621	-0.02
Mof_C 	C 	0.98414	0.26402	0.10024	0.338
Mof_C 	C 	0.97706	0.23808	0.1584	-0.079
Mof_C 	C 	0.97039	0.26613	0.18727	-0.015
Mof_C 	C 	0.10024	0.6516	0.98414	0.335
Mof_C 	C 	0.1584	0.62646	0.97706	-0.068
Mof_C 	C 	0.18727	0.57621	0.97039	-0.02
Mof_C 	C 	0.26402	0.98414	0.6516	0.336
Mof_C 	C 	0.23808	0.97706	0.62646	-0.062
Mof_C 	C 	0.26613	0.97039	0.57621	-0.02
Mof_C 	C 	0.6516	0.10024	0.26402	0.347
Mof_C 	C 	0.62646	0.1584	0.23808	-0.107
Mof_C 	C 	0.57621	0.18727	0.26613	-0.006
Mof_C 	C 	0.10024	0.26402	0.6516	0.347
Mof_C 	C 	0.1584	0.23808	0.62646	-0.107
Mof_C 	C 	0.18727	0.26613	0.57621	-0.006
Mof_C 	C 	0.98414	0.6516	0.26402	0.336
Mof_C 	C 	0.97706	0.62646	0.23808	-0.062
Mof_C 	C 	0.97039	0.57621	0.26613	-0.02
Mof_C 	C 	0.6516	0.98414	0.10024	0.335
Mof_C 	C 	0.62646	0.97706	0.1584	-0.068
Mof_C 	C 	0.57621	0.97039	0.18727	-0.02
Mof_C 	C 	0.26402	0.10024	0.98414	0.338
Mof_C 	C 	0.23808	0.1584	0.97706	-0.079
Mof_C 	C 	0.26613	0.18727	0.97039	-0.015
Mof_C 	C 	0.2413	0.55134	0.96606	0.009
Mof_C 	C 	0.18439	0.65139	0.97983	0.021
Mof_C 	C 	0.2721	0.4989	0.9569	0.027
Mof_C 	C 	0.2946	0.4556	0.9552	-0.065
Mof_C 	C 	0.3224	0.4018	0.9534	0.145
Mof_C 	C 	0.55134	0.2413	0.2413	-0.023
Mof_C 	C 	0.65139	0.18439	0.18439	0.038
Mof_C 	C 	0.4989	0.2721	0.2721	0.019
Mof_C 	C 	0.4556	0.2946	0.2946	-0.084
Mof_C 	C 	0.4018	0.3224	0.3224	0.134
Mof_C 	C 	0.96606	0.2413	0.2413	-0
Mof_C 	C 	0.97983	0.18439	0.18439	0.026
Mof_C 	C 	0.9569	0.2721	0.2721	0.026
Mof_C 	C 	0.9552	0.2946	0.2946	-0.069
Mof_C 	C 	0.9534	0.3224	0.3224	0.144
Mof_C 	C 	0.2413	0.96606	0.55134	0.009
Mof_C 	C 	0.18439	0.97983	0.65139	0.021
Mof_C 	C 	0.2721	0.9569	0.4989	0.027
Mof_C 	C 	0.2946	0.9552	0.4556	-0.065
Mof_C 	C 	0.3224	0.9534	0.4018	0.145
Mof_C 	C 	0.2413	0.96606	0.2413	-0
Mof_C 	C 	0.18439	0.97983	0.18439	0.026
Mof_C 	C 	0.2721	0.9569	0.2721	0.026
Mof_C 	C 	0.2946	0.9552	0.2946	-0.069
Mof_C 	C 	0.3224	0.9534	0.3224	0.144
Mof_C 	C 	0.55134	0.2413	0.96606	0.009
Mof_C 	C 	0.65139	0.18439	0.97983	0.021
Mof_C 	C 	0.4989	0.2721	0.9569	0.027
Mof_C 	C 	0.4556	0.2946	0.9552	-0.065
Mof_C 	C 	0.4018	0.3224	0.9534	0.145
Mof_C 	C 	0.96606	0.2413	0.55134	0.009
Mof_C 	C 	0.97983	0.18439	0.65139	0.021
Mof_C 	C 	0.9569	0.2721	0.4989	0.027
Mof_C 	C 	0.9552	0.2946	0.4556	-0.065
Mof_C 	C 	0.9534	0.3224	0.4018	0.145
Mof_C 	C 	0.2413	0.55134	0.2413	-0.023
Mof_C 	C 	0.18439	0.65139	0.18439	0.038
Mof_C 	C 	0.2721	0.4989	0.2721	0.019
Mof_C 	C 	0.2946	0.4556	0.2946	-0.084
Mof_C 	C 	0.3224	0.4018	0.3224	0.134
Mof_C 	C 	0.2413	0.2413	0.55134	-0.023
Mof_C 	C 	0.18439	0.18439	0.65139	0.038
Mof_C 	C 	0.2721	0.2721	0.4989	0.019
Mof_C 	C 	0.2946	0.2946	0.4556	-0.084
Mof_C 	C 	0.3224	0.3224	0.4018	0.134
Mof_C 	C 	0.55134	0.96606	0.2413	0.009
Mof_C 	C 	0.65139	0.97983	0.18439	0.021
Mof_C 	C 	0.4989	0.9569	0.2721	0.027
Mof_C 	C 	0.4556	0.9552	0.2946	-0.065
Mof_C 	C 	0.4018	0.9534	0.3224	0.145
Mof_C 	C 	0.96606	0.55134	0.2413	0.009
Mof_C 	C 	0.97983	0.65139	0.18439	0.021
Mof_C 	C 	0.9569	0.4989	0.2721	0.027
Mof_C 	C 	0.9552	0.4556	0.2946	-0.065
Mof_C 	C 	0.9534	0.4018	0.3224	0.145
Mof_C 	C 	0.2413	0.2413	0.96606	-0
Mof_C 	C 	0.18439	0.18439	0.97983	0.026
Mof_C 	C 	0.2721	0.2721	0.9569	0.026
Mof_C 	C 	0.2946	0.2946	0.9552	-0.069
Mof_C 	C 	0.3224	0.3224	0.9534	0.144
Mof_C 	C 	0.44866	0.7587	0.03394	-0.013
Mof_C 	C 	0.34861	0.81561	0.02017	0.032
Mof_C 	C 	0.5011	0.7279	0.0431	0.022
Mof_C 	C 	0.5444	0.7054	0.0448	-0.078
Mof_C 	C 	0.5982	0.6776	0.0466	0.139
Mof_C 	C 	0.7587	0.44866	0.7587	0.016
Mof_C 	C 	0.81561	0.34861	0.81561	0.018
Mof_C 	C 	0.7279	0.5011	0.7279	0.03
Mof_C 	C 	0.7054	0.5444	0.7054	-0.059
Mof_C 	C 	0.6776	0.5982	0.6776	0.149
Mof_C 	C 	0.7587	0.03394	0.7587	-0.001
Mof_C 	C 	0.81561	0.02017	0.81561	0.023
Mof_C 	C 	0.7279	0.0431	0.7279	0.022
Mof_C 	C 	0.7054	0.0448	0.7054	-0.072
Mof_C 	C 	0.6776	0.0466	0.6776	0.14
Mof_C 	C 	0.03394	0.7587	0.44866	-0.013
Mof_C 	C 	0.02017	0.81561	0.34861	0.032
Mof_C 	C 	0.0431	0.7279	0.5011	0.022
Mof_C 	C 	0.0448	0.7054	0.5444	-0.078
Mof_C 	C 	0.0466	0.6776	0.5982	0.139
Mof_C 	C 	0.03394	0.7587	0.7587	-0.001
Mof_C 	C 	0.02017	0.81561	0.81561	0.023
Mof_C 	C 	0.0431	0.7279	0.7279	0.022
Mof_C 	C 	0.0448	0.7054	0.7054	-0.072
Mof_C 	C 	0.0466	0.6776	0.6776	0.14
Mof_C 	C 	0.7587	0.44866	0.03394	-0.013
Mof_C 	C 	0.81561	0.34861	0.02017	0.032
Mof_C 	C 	0.7279	0.5011	0.0431	0.022
Mof_C 	C 	0.7054	0.5444	0.0448	-0.078
Mof_C 	C 	0.6776	0.5982	0.0466	0.139
Mof_C 	C 	0.7587	0.03394	0.44866	-0.013
Mof_C 	C 	0.81561	0.02017	0.34861	0.032
Mof_C 	C 	0.7279	0.0431	0.5011	0.022
Mof_C 	C 	0.7054	0.0448	0.5444	-0.078
Mof_C 	C 	0.6776	0.0466	0.5982	0.139
Mof_C 	C 	0.44866	0.7587	0.7587	0.016
Mof_C 	C 	0.34861	0.81561	0.81561	0.018
Mof_C 	C 	0.5011	0.7279	0.7279	0.03
Mof_C 	C 	0.5444	0.7054	0.7054	-0.059
Mof_C 	C 	0.5982	0.6776	0.6776	0.149
Mof_C 	C 	0.7587	0.7587	0.44866	0.016
Mof_C 	C 	0.81561	0.81561	0.34861	0.018
Mof_C 	C 	0.7279	0.7279	0.5011	0.03
Mof_C 	C 	0.7054	0.7054	0.5444	-0.059
Mof_C 	C 	0.6776	0.6776	0.5982	0.149
Mof_C 	C 	0.03394	0.44866	0.7587	-0.013
Mof_C 	C 	0.02017	0.34861	0.81561	0.032
Mof_C 	C 	0.0431	0.5011	0.7279	0.022
Mof_C 	C 	0.0448	0.5444	0.7054	-0.078
Mof_C 	C 	0.0466	0.5982	0.6776	0.139
Mof_C 	C 	0.44866	0.03394	0.7587	-0.013
Mof_C 	C 	0.34861	0.02017	0.81561	0.032
Mof_C 	C 	0.5011	0.0431	0.7279	0.022
Mof_C 	C 	0.5444	0.0448	0.7054	-0.078
Mof_C 	C 	0.5982	0.0466	0.6776	0.139
Mof_C 	C 	0.7587	0.7587	0.03394	-0.001
Mof_C 	C 	0.81561	0.81561	0.02017	0.023
Mof_C 	C 	0.7279	0.7279	0.0431	0.022
Mof_C 	C 	0.7054	0.7054	0.0448	-0.072
Mof_C 	C 	0.6776	0.6776	0.0466	0.14
Mof_C 	C 	0.2969	0.3757	0.9517	-0.189
Mof_C 	C 	0.3757	0.2969	0.3757	-0.194
Mof_C 	C 	0.9517	0.3757	0.2969	-0.189
Mof_C 	C 	0.3757	0.9517	0.3757	-0.189
Mof_C 	C 	0.2969	0.9517	0.3757	-0.189
Mof_C 	C 	0.3757	0.3757	0.9517	-0.189
Mof_C 	C 	0.9517	0.2969	0.3757	-0.189
Mof_C 	C 	0.3757	0.3757	0.2969	-0.194
Mof_C 	C 	0.2969	0.3757	0.3757	-0.194
Mof_C 	C 	0.3757	0.9517	0.2969	-0.189
Mof_C 	C 	0.9517	0.3757	0.3757	-0.189
Mof_C 	C 	0.3757	0.2969	0.9517	-0.189
Mof_C 	C 	0.6243	0.7031	0.0483	-0.192
Mof_C 	C 	0.7031	0.6243	0.6243	-0.188
Mof_C 	C 	0.6243	0.0483	0.7031	-0.192
Mof_C 	C 	0.0483	0.6243	0.6243	-0.192
Mof_C 	C 	0.0483	0.7031	0.6243	-0.192
Mof_C 	C 	0.6243	0.6243	0.0483	-0.192
Mof_C 	C 	0.7031	0.0483	0.6243	-0.192
Mof_C 	C 	0.6243	0.6243	0.7031	-0.188
Mof_C 	C 	0.6243	0.7031	0.6243	-0.188
Mof_C 	C 	0.0483	0.6243	0.7031	-0.192
Mof_C 	C 	0.6243	0.0483	0.6243	-0.192
Mof_C 	C 	0.7031	0.6243	0.0483	-0.192
Mof_O 	O 	0.31132	0.6245	0.9869	-0.347
Mof_O 	O 	0.23686	0.69914	0.98714	-0.345
Mof_O 	O 	0.6245	0.31132	0.07728	-0.43
Mof_O 	O 	0.69914	0.23686	0.07686	-0.428
Mof_O 	O 	0.9869	0.07728	0.31132	-0.374
Mof_O 	O 	0.98714	0.07686	0.23686	-0.374
Mof_O 	O 	0.07728	0.9869	0.6245	-0.372
Mof_O 	O 	0.07686	0.98714	0.69914	-0.364
Mof_O 	O 	0.31132	0.9869	0.07728	-0.374
Mof_O 	O 	0.23686	0.98714	0.07686	-0.374
Mof_O 	O 	0.6245	0.07728	0.9869	-0.372
Mof_O 	O 	0.69914	0.07686	0.98714	-0.364
Mof_O 	O 	0.9869	0.31132	0.6245	-0.347
Mof_O 	O 	0.98714	0.23686	0.69914	-0.345
Mof_O 	O 	0.07728	0.6245	0.31132	-0.43
Mof_O 	O 	0.07686	0.69914	0.23686	-0.428
Mof_O 	O 	0.31132	0.07728	0.6245	-0.43
Mof_O 	O 	0.23686	0.07686	0.69914	-0.428
Mof_O 	O 	0.6245	0.9869	0.31132	-0.347
Mof_O 	O 	0.69914	0.98714	0.23686	-0.345
Mof_O 	O 	0.9869	0.6245	0.07728	-0.372
Mof_O 	O 	0.98714	0.69914	0.07686	-0.364
Mof_O 	O 	0.07728	0.31132	0.9869	-0.374
Mof_O 	O 	0.07686	0.23686	0.98714	-0.374
Mof_O 	O 	0.3755	0.68868	0.0131	-0.428
Mof_O 	O 	0.30086	0.76314	0.01286	-0.424
Mof_O 	O 	0.68868	0.3755	0.92272	-0.346
Mof_O 	O 	0.76314	0.30086	0.92314	-0.342
Mof_O 	O 	0.92272	0.0131	0.68868	-0.375
Mof_O 	O 	0.92314	0.01286	0.76314	-0.369
Mof_O 	O 	0.0131	0.92272	0.3755	-0.377
Mof_O 	O 	0.01286	0.92314	0.30086	-0.379
Mof_O 	O 	0.0131	0.68868	0.92272	-0.375
Mof_O 	O 	0.01286	0.76314	0.92314	-0.369
Mof_O 	O 	0.92272	0.3755	0.0131	-0.377
Mof_O 	O 	0.92314	0.30086	0.01286	-0.379
Mof_O 	O 	0.68868	0.0131	0.3755	-0.428
Mof_O 	O 	0.76314	0.01286	0.30086	-0.424
Mof_O 	O 	0.3755	0.92272	0.68868	-0.346
Mof_O 	O 	0.30086	0.92314	0.76314	-0.342
Mof_O 	O 	0.92272	0.68868	0.3755	-0.346
Mof_O 	O 	0.92314	0.76314	0.30086	-0.342
Mof_O 	O 	0.0131	0.3755	0.68868	-0.428
Mof_O 	O 	0.01286	0.30086	0.76314	-0.424
Mof_O 	O 	0.3755	0.0131	0.92272	-0.377
Mof_O 	O 	0.30086	0.01286	0.92314	-0.379
Mof_O 	O 	0.68868	0.92272	0.0131	-0.375
Mof_O 	O 	0.76314	0.92314	0.01286	-0.369
Mof_O 	O 	0.68868	0.3755	0.0131	-0.428
Mof_O 	O 	0.76314	0.30086	0.01286	-0.424
Mof_O 	O 	0.3755	0.68868	0.92272	-0.346
Mof_O 	O 	0.30086	0.76314	0.92314	-0.342
Mof_O 	O 	0.0131	0.92272	0.68868	-0.375
Mof_O 	O 	0.01286	0.92314	0.76314	-0.369
Mof_O 	O 	0.92272	0.0131	0.3755	-0.377
Mof_O 	O 	0.92314	0.01286	0.30086	-0.379
Mof_O 	O 	0.68868	0.0131	0.92272	-0.375
Mof_O 	O 	0.76314	0.01286	0.92314	-0.369
Mof_O 	O 	0.3755	0.92272	0.0131	-0.377
Mof_O 	O 	0.30086	0.92314	0.01286	-0.379
Mof_O 	O 	0.0131	0.68868	0.3755	-0.428
Mof_O 	O 	0.01286	0.76314	0.30086	-0.424
Mof_O 	O 	0.92272	0.3755	0.68868	-0.346
Mof_O 	O 	0.92314	0.30086	0.76314	-0.342
Mof_O 	O 	0.68868	0.92272	0.3755	-0.346
Mof_O 	O 	0.76314	0.92314	0.30086	-0.342
Mof_O 	O 	0.3755	0.0131	0.68868	-0.428
Mof_O 	O 	0.30086	0.01286	0.76314	-0.424
Mof_O 	O 	0.0131	0.3755	0.92272	-0.377
Mof_O 	O 	0.01286	0.30086	0.92314	-0.379
Mof_O 	O 	0.92272	0.68868	0.0131	-0.375
Mof_O 	O 	0.92314	0.76314	0.01286	-0.369
Mof_O 	O 	0.6245	0.31132	0.9869	-0.347
Mof_O 	O 	0.69914	0.23686	0.98714	-0.345
Mof_O 	O 	0.31132	0.6245	0.07728	-0.43
Mof_O 	O 	0.23686	0.69914	0.07686	-0.428
Mof_O 	O 	0.07728	0.9869	0.31132	-0.374
Mof_O 	O 	0.07686	0.98714	0.23686	-0.374
Mof_O 	O 	0.9869	0.07728	0.6245	-0.372
Mof_O 	O 	0.98714	0.07686	0.69914	-0.364
Mof_O 	O 	0.9869	0.31132	0.07728	-0.374
Mof_O 	O 	0.98714	0.23686	0.07686	-0.374
Mof_O 	O 	0.07728	0.6245	0.9869	-0.372
Mof_O 	O 	0.07686	0.69914	0.98714	-0.364
Mof_O 	O 	0.31132	0.9869	0.6245	-0.347
Mof_O 	O 	0.23686	0.98714	0.69914	-0.345
Mof_O 	O 	0.6245	0.07728	0.31132	-0.43
Mof_O 	O 	0.69914	0.07686	0.23686	-0.428
Mof_O 	O 	0.07728	0.31132	0.6245	-0.43
Mof_O 	O 	0.07686	0.23686	0.69914	-0.428
Mof_O 	O 	0.9869	0.6245	0.31132	-0.347
Mof_O 	O 	0.98714	0.69914	0.23686	-0.345
Mof_O 	O 	0.6245	0.9869	0.07728	-0.372
Mof_O 	O 	0.69914	0.98714	0.07686	-0.364
Mof_O 	O 	0.31132	0.07728	0.9869	-0.374
Mof_O 	O 	0.23686	0.07686	0.98714	-0.374
_end
