data_functionalizedCrystal
_audit_creation_method	'EQeq! by Chris Wilmer'
_symmetry_space_group_name_H-M	'P1'
_symmetry_Int_Tables_number	1
_symmetry_cell_setting	triclinic
loop_
_symmetry_equiv_pos_as_xyz
  x,y,z
_cell_length_a	9.5403
_cell_length_b	9.5403
_cell_length_c	26.6081
_cell_angle_alpha	82.89
_cell_angle_beta	82.8899
_cell_angle_gamma	108.034
loop_
_atom_site_label
_atom_site_type_symbol
_atom_site_fract_x
_atom_site_fract_y
_atom_site_fract_z
_atom_site_charge
Mof_Cu	Cu	0.36683	0.43011	0.21194	0.915
Mof_Cu	Cu	0.30271	0.96301	0.23274	0.867
Mof_Cu	Cu	0.64205	0.57877	0.78806	0.914
Mof_Cu	Cu	0.19575	0.53545	0.76726	0.891
Mof_Cu	Cu	0.82877	0.39205	0.28806	0.913
Mof_Cu	Cu	0.78545	0.94575	0.26726	0.863
Mof_Cu	Cu	0.68011	0.11683	0.71194	0.922
Mof_Cu	Cu	0.21301	0.05271	0.73274	0.907
Mof_P 	P 	0.59326	0.60892	0.26942	0.434
Mof_P 	P 	0.6243	0.1832	0.2347	0.424
Mof_P 	P 	0.87834	0.86268	0.73058	0.395
Mof_P 	P 	0.4179	0.859	0.7653	0.427
Mof_P 	P 	0.11268	0.62834	0.23058	0.441
Mof_P 	P 	0.109	0.1679	0.2653	0.429
Mof_P 	P 	0.85892	0.34326	0.76942	0.43
Mof_P 	P 	0.4332	0.3743	0.7347	0.424
Mof_H 	H 	0.3991	0.2925	0.2916	0.099
Mof_H 	H 	0.9305	0.6165	0.1788	0.11
Mof_H 	H 	0.0478	0.5476	0.1548	0.118
Mof_H 	H 	0.7768	0.3114	0.1568	0.109
Mof_H 	H 	0.7071	0.4191	0.1832	0.104
Mof_H 	H 	0.7271	0.5083	0.3806	-0.012
Mof_H 	H 	0.7086	0.4588	0.4684	0.07
Mof_H 	H 	0.5535	0.2797	0.5464	0.073
Mof_H 	H 	0.5303	0.2249	0.6334	-0.012
Mof_H 	H 	0.5841	0.6907	0.7084	0.094
Mof_H 	H 	0.7953	0.1093	0.8212	0.121
Mof_H 	H 	0.7024	0.2026	0.8452	0.115
Mof_H 	H 	0.4682	0.9336	0.8432	0.108
Mof_H 	H 	0.6023	0.8903	0.8168	0.107
Mof_H 	H 	0.8889	0.1077	0.6194	-0.003
Mof_H 	H 	0.9272	0.177	0.5316	0.075
Mof_H 	H 	0.8261	0.0999	0.4536	0.078
Mof_H 	H 	0.8583	0.1637	0.3666	-0.011
Mof_H 	H 	0.9407	0.3341	0.2084	0.096
Mof_H 	H 	0.3593	0.5453	0.3212	0.106
Mof_H 	H 	0.4526	0.4524	0.3452	0.106
Mof_H 	H 	0.1836	0.2182	0.3432	0.112
Mof_H 	H 	0.1403	0.3523	0.3168	0.107
Mof_H 	H 	0.3577	0.6389	0.1194	-0.011
Mof_H 	H 	0.427	0.6772	0.0316	0.069
Mof_H 	H 	0.3499	0.5761	0.9536	0.071
Mof_H 	H 	0.4137	0.6083	0.8666	-0.014
Mof_H 	H 	0.5425	0.1491	0.7916	0.102
Mof_H 	H 	0.8665	0.6805	0.6788	0.101
Mof_H 	H 	0.7976	0.7978	0.6548	0.092
Mof_H 	H 	0.5614	0.5268	0.6568	0.104
Mof_H 	H 	0.6691	0.4571	0.6832	0.104
Mof_H 	H 	0.7583	0.4771	0.8806	-0.008
Mof_H 	H 	0.7088	0.4586	0.9684	0.073
Mof_H 	H 	0.5297	0.3035	0.0464	0.078
Mof_H 	H 	0.4749	0.2803	0.1334	-0.01
Mof_C 	C 	0.426	0.4892	0.3134	-0.252
Mof_C 	C 	0.7521	0.3417	0.1894	-0.254
Mof_C 	C 	0.7517	0.4273	0.3952	0.084
Mof_C 	C 	0.7362	0.3956	0.4482	-0.147
Mof_C 	C 	0.76166	0.27106	0.47088	0.06
Mof_C 	C 	0.6245	0.2469	0.5606	-0.141
Mof_C 	C 	0.6107	0.2137	0.6128	0.075
Mof_C 	C 	0.8026	0.7394	0.6866	-0.242
Mof_C 	C 	0.5311	0.9415	0.8106	-0.289
Mof_C 	C 	0.8225	0.1469	0.6048	0.087
Mof_C 	C 	0.8438	0.1844	0.5518	-0.143
Mof_C 	C 	0.74194	0.23254	0.52912	0.059
Mof_C 	C 	0.8075	0.1851	0.4394	-0.142
Mof_C 	C 	0.8265	0.2235	0.3872	0.073
Mof_C 	C 	0.9894	0.5526	0.1866	-0.275
Mof_C 	C 	0.1915	0.2811	0.3106	-0.255
Mof_C 	C 	0.3969	0.5725	0.1048	0.085
Mof_C 	C 	0.4344	0.5938	0.0518	-0.147
Mof_C 	C 	0.48254	0.49194	0.02912	0.061
Mof_C 	C 	0.4351	0.5575	0.9394	-0.141
Mof_C 	C 	0.4735	0.5765	0.8872	0.07
Mof_C 	C 	0.7392	0.176	0.8134	-0.257
Mof_C 	C 	0.5917	0.5021	0.6894	-0.252
Mof_C 	C 	0.6773	0.5017	0.8952	0.084
Mof_C 	C 	0.6456	0.4862	0.9482	-0.144
Mof_C 	C 	0.52106	0.51166	0.97088	0.057
Mof_C 	C 	0.4969	0.3745	0.0606	-0.142
Mof_C 	C 	0.4637	0.3607	0.1128	0.074
Mof_N 	N 	0.34951	0.35991	0.28818	-0.184
Mof_N 	N 	0.80006	0.34606	0.36468	-0.222
Mof_N 	N 	0.64809	0.63769	0.71182	-0.186
Mof_N 	N 	0.71074	0.16474	0.63532	-0.218
Mof_N 	N 	0.88769	0.39809	0.21182	-0.182
Mof_N 	N 	0.41474	0.46074	0.13532	-0.222
Mof_N 	N 	0.60991	0.09951	0.78818	-0.165
Mof_N 	N 	0.59606	0.55006	0.86468	-0.221
Mof_O 	O 	0.72849	0.57329	0.28262	-0.362
Mof_O 	O 	0.02535	0.54315	0.2837	-0.375
Mof_O 	O 	0.13163	0.79483	0.22354	-0.404
Mof_O 	O 	0.67749	0.04889	0.22922	-0.374
Mof_O 	O 	0.46577	0.15397	0.22326	-0.405
Mof_O 	O 	0.63921	0.23181	0.28678	-0.381
Mof_O 	O 	0.85591	0.01111	0.71738	-0.325
Mof_O 	O 	0.82685	0.30905	0.7163	-0.377
Mof_O 	O 	0.01837	0.35517	0.77646	-0.382
Mof_O 	O 	0.27811	0.90671	0.77078	-0.416
Mof_O 	O 	0.37723	0.68903	0.77674	-0.42
Mof_O 	O 	0.51859	0.92599	0.71322	-0.408
Mof_O 	O 	0.26111	0.60591	0.21738	-0.361
Mof_O 	O 	0.55905	0.57685	0.2163	-0.38
Mof_O 	O 	0.60517	0.76837	0.27646	-0.406
Mof_O 	O 	0.15671	0.02811	0.27078	-0.374
Mof_O 	O 	0.93903	0.12723	0.27674	-0.409
Mof_O 	O 	0.17599	0.26859	0.21322	-0.38
Mof_O 	O 	0.82329	0.47849	0.78262	-0.358
Mof_O 	O 	0.79315	0.77535	0.7837	-0.379
Mof_O 	O 	0.04483	0.88163	0.72354	-0.394
Mof_O 	O 	0.29889	0.42749	0.72922	-0.399
Mof_O 	O 	0.40397	0.21577	0.72326	-0.411
Mof_O 	O 	0.48181	0.38921	0.78678	-0.383
_end
