data_functionalizedCrystal
_audit_creation_method	'EQeq! by Chris Wilmer'
_symmetry_space_group_name_H-M	'P1'
_symmetry_Int_Tables_number	1
_symmetry_cell_setting	triclinic
loop_
_symmetry_equiv_pos_as_xyz
  x,y,z
_cell_length_a	5.459
_cell_length_b	26.5981
_cell_length_c	36.7601
_cell_angle_alpha	90
_cell_angle_beta	90
_cell_angle_gamma	91.406
loop_
_atom_site_label
_atom_site_type_symbol
_atom_site_fract_x
_atom_site_fract_y
_atom_site_fract_z
_atom_site_charge
Mof_U 	U 	0.89873	0.53673	0.06285	0.027
Mof_U 	U 	0.68471	0.61862	0.1908	0.012
Mof_U 	U 	0.44725	0.03806	0.09971	0.058
Mof_U 	U 	0.10127	0.96327	0.56285	0.027
Mof_U 	U 	0.31529	0.88138	0.6908	0.012
Mof_U 	U 	0.55275	0.46194	0.59971	0.058
Mof_U 	U 	0.10127	0.46327	0.93715	0.026
Mof_U 	U 	0.31529	0.38138	0.8092	0.011
Mof_U 	U 	0.55275	0.96194	0.90029	0.057
Mof_U 	U 	0.89873	0.03673	0.43715	0.026
Mof_U 	U 	0.68471	0.11862	0.3092	0.011
Mof_U 	U 	0.44725	0.53806	0.40029	0.057
Mof_H 	H 	0.9183	0.3103	0.1713	0.083
Mof_H 	H 	0.6005	0.5768	0.9414	0.114
Mof_H 	H 	0.197	0.6661	0.0046	0.08
Mof_H 	H 	0.4374	0.655	0.0736	0.115
Mof_H 	H 	0.6517	0.41	0.1341	0.083
Mof_H 	H 	0.9332	0.7546	0.9861	0.09
Mof_H 	H 	0.4127	0.7354	0.9835	0.074
Mof_H 	H 	0.2014	0.5032	0.1849	0.113
Mof_H 	H 	0.7591	0.2393	0.1993	0.083
Mof_H 	H 	0.9029	0.8264	0.8717	0.09
Mof_H 	H 	0.2717	0.7986	0.1392	0.063
Mof_H 	H 	0.0166	0.7295	0.1437	0.079
Mof_H 	H 	0.1729	0.8247	0.973	0.073
Mof_H 	H 	0.745	0.8135	0.1543	0.08
Mof_H 	H 	0.4672	0.3426	0.1636	0.083
Mof_H 	H 	0.9839	0.8863	0.1579	0.074
Mof_H 	H 	0.1679	0.2701	0.2877	0.095
Mof_H 	H 	0.8621	0.9133	0.0526	0.098
Mof_H 	H 	0.2926	0.0962	0.0526	0.215
Mof_H 	H 	0.0663	0.0691	0.071	0.199
Mof_H 	H 	0.8114	0.0338	0.14	0.221
Mof_H 	H 	0.7332	0.979	0.1284	0.211
Mof_H 	H 	0.3612	0.1012	0.146	0.216
Mof_H 	H 	0.3093	0.048	0.163	0.228
Mof_H 	H 	0.7517	0.0255	0.053	0.21
Mof_H 	H 	0.509	0.9964	0.0424	0.219
Mof_H 	H 	0.0817	0.1897	0.6713	0.083
Mof_H 	H 	0.3995	0.9232	0.4414	0.114
Mof_H 	H 	0.803	0.8339	0.5046	0.08
Mof_H 	H 	0.5626	0.845	0.5736	0.115
Mof_H 	H 	0.3483	0.09	0.6341	0.083
Mof_H 	H 	0.0668	0.7454	0.4861	0.09
Mof_H 	H 	0.5873	0.7646	0.4835	0.074
Mof_H 	H 	0.7986	0.9968	0.6849	0.113
Mof_H 	H 	0.2409	0.2607	0.6993	0.083
Mof_H 	H 	0.0971	0.6736	0.3717	0.09
Mof_H 	H 	0.7283	0.7014	0.6392	0.063
Mof_H 	H 	0.9834	0.7705	0.6437	0.079
Mof_H 	H 	0.8271	0.6753	0.473	0.073
Mof_H 	H 	0.255	0.6865	0.6543	0.08
Mof_H 	H 	0.5328	0.1574	0.6636	0.083
Mof_H 	H 	0.0161	0.6137	0.6579	0.074
Mof_H 	H 	0.8321	0.2299	0.7877	0.095
Mof_H 	H 	0.1379	0.5867	0.5526	0.098
Mof_H 	H 	0.7074	0.4038	0.5526	0.215
Mof_H 	H 	0.9337	0.4309	0.571	0.199
Mof_H 	H 	0.1886	0.4662	0.64	0.221
Mof_H 	H 	0.2668	0.521	0.6284	0.211
Mof_H 	H 	0.6388	0.3988	0.646	0.216
Mof_H 	H 	0.6907	0.452	0.663	0.228
Mof_H 	H 	0.2483	0.4745	0.553	0.21
Mof_H 	H 	0.491	0.5036	0.5424	0.219
Mof_H 	H 	0.0817	0.6897	0.8287	0.083
Mof_H 	H 	0.3995	0.4232	0.0586	0.114
Mof_H 	H 	0.803	0.3339	0.9954	0.08
Mof_H 	H 	0.5626	0.345	0.9264	0.115
Mof_H 	H 	0.3483	0.59	0.8659	0.083
Mof_H 	H 	0.0668	0.2454	0.0139	0.09
Mof_H 	H 	0.5873	0.2646	0.0165	0.074
Mof_H 	H 	0.7986	0.4968	0.8151	0.113
Mof_H 	H 	0.2409	0.7607	0.8007	0.083
Mof_H 	H 	0.0971	0.1736	0.1283	0.09
Mof_H 	H 	0.7283	0.2014	0.8608	0.063
Mof_H 	H 	0.9834	0.2705	0.8563	0.079
Mof_H 	H 	0.8271	0.1753	0.027	0.073
Mof_H 	H 	0.255	0.1865	0.8457	0.08
Mof_H 	H 	0.5328	0.6574	0.8364	0.083
Mof_H 	H 	0.0161	0.1137	0.8421	0.074
Mof_H 	H 	0.8321	0.7299	0.7123	0.095
Mof_H 	H 	0.1379	0.0867	0.9474	0.098
Mof_H 	H 	0.7074	0.9038	0.9474	0.215
Mof_H 	H 	0.9337	0.9309	0.929	0.199
Mof_H 	H 	0.1886	0.9662	0.86	0.221
Mof_H 	H 	0.2668	0.021	0.8716	0.211
Mof_H 	H 	0.6388	0.8988	0.854	0.216
Mof_H 	H 	0.6907	0.952	0.837	0.228
Mof_H 	H 	0.2483	0.9745	0.947	0.21
Mof_H 	H 	0.491	0.0036	0.9576	0.219
Mof_H 	H 	0.9183	0.8103	0.3287	0.083
Mof_H 	H 	0.6005	0.0768	0.5586	0.114
Mof_H 	H 	0.197	0.1661	0.4954	0.08
Mof_H 	H 	0.4374	0.155	0.4264	0.115
Mof_H 	H 	0.6517	0.91	0.3659	0.083
Mof_H 	H 	0.9332	0.2546	0.5139	0.09
Mof_H 	H 	0.4127	0.2354	0.5165	0.074
Mof_H 	H 	0.2014	0.0032	0.3151	0.113
Mof_H 	H 	0.7591	0.7393	0.3007	0.083
Mof_H 	H 	0.9029	0.3264	0.6283	0.09
Mof_H 	H 	0.2717	0.2986	0.3608	0.063
Mof_H 	H 	0.0166	0.2295	0.3563	0.079
Mof_H 	H 	0.1729	0.3247	0.527	0.073
Mof_H 	H 	0.745	0.3135	0.3457	0.08
Mof_H 	H 	0.4672	0.8426	0.3364	0.083
Mof_H 	H 	0.9839	0.3863	0.3421	0.074
Mof_H 	H 	0.1679	0.7701	0.2123	0.095
Mof_H 	H 	0.8621	0.4133	0.4474	0.098
Mof_H 	H 	0.2926	0.5962	0.4474	0.215
Mof_H 	H 	0.0663	0.5691	0.429	0.199
Mof_H 	H 	0.8114	0.5338	0.36	0.221
Mof_H 	H 	0.7332	0.479	0.3716	0.211
Mof_H 	H 	0.3612	0.6012	0.354	0.216
Mof_H 	H 	0.3093	0.548	0.337	0.228
Mof_H 	H 	0.7517	0.5255	0.447	0.21
Mof_H 	H 	0.509	0.4964	0.4576	0.219
Mof_C 	C 	0.9649	0.3029	0.195	-0.029
Mof_C 	C 	0.2301	0.5694	0.987	0.268
Mof_C 	C 	0.0372	0.6397	0.1142	0.259
Mof_C 	C 	0.6901	0.6514	0.9377	0.089
Mof_C 	C 	0.6319	0.6999	0.9481	0.014
Mof_C 	C 	0.3744	0.6142	0.9748	0.007
Mof_C 	C 	0.4501	0.4636	0.1576	0.005
Mof_C 	C 	0.5611	0.6086	0.9499	-0.071
Mof_C 	C 	0.1253	0.9511	0.1064	0.309
Mof_C 	C 	0.5822	0.5086	0.1415	0.277
Mof_C 	C 	0.5488	0.7272	0.0823	0.095
Mof_C 	C 	0.7611	0.7711	0.9033	0.08
Mof_C 	C 	0.3202	0.6622	0.9874	-0.025
Mof_C 	C 	0.6535	0.8193	0.1016	0.022
Mof_C 	C 	0.2002	0.6849	0.1092	0.015
Mof_C 	C 	0.948	0.2474	0.2458	0.003
Mof_C 	C 	0.4012	0.6841	0.0863	-0.077
Mof_C 	C 	0.7714	0.7469	0.9372	0.025
Mof_C 	C 	0.231	0.3813	0.1942	0.023
Mof_C 	C 	0.5267	0.4153	0.1508	-0.021
Mof_C 	C 	0.5026	0.7714	0.1016	0.011
Mof_C 	C 	0.9269	0.7686	0.9629	-0.06
Mof_C 	C 	0.9554	0.906	0.1055	-0.038
Mof_C 	C 	0.1275	0.3357	0.2132	0.008
Mof_C 	C 	0.4489	0.7038	0.9745	-0.035
Mof_C 	C 	0.1499	0.4306	0.1989	0.089
Mof_C 	C 	0.1977	0.3219	0.2476	0.09
Mof_C 	C 	0.2583	0.471	0.1811	-0.07
Mof_C 	C 	0.8724	0.2598	0.2114	-0.028
Mof_C 	C 	0.9101	0.8119	0.8947	-0.055
Mof_C 	C 	0.3033	0.7703	0.1252	-0.034
Mof_C 	C 	0.1525	0.7286	0.1284	-0.031
Mof_C 	C 	0.0726	0.8314	0.9208	-0.042
Mof_C 	C 	0.2419	0.8749	0.9128	0.306
Mof_C 	C 	0.0735	0.8106	0.955	-0.008
Mof_C 	C 	0.7669	0.8334	0.1337	-0.06
Mof_C 	C 	0.416	0.375	0.1688	-0.038
Mof_C 	C 	0.6865	0.8511	0.072	0.083
Mof_C 	C 	0.914	0.8769	0.1358	-0.009
Mof_C 	C 	0.115	0.2784	0.2645	-0.084
Mof_C 	C 	0.839	0.8935	0.0732	-0.053
Mof_C 	C 	0.845	0.2028	0.2662	0.268
Mof_C 	C 	0.0351	0.1971	0.695	-0.029
Mof_C 	C 	0.7699	0.9306	0.487	0.268
Mof_C 	C 	0.9628	0.8603	0.6142	0.258
Mof_C 	C 	0.3099	0.8486	0.4377	0.089
Mof_C 	C 	0.3681	0.8001	0.4481	0.014
Mof_C 	C 	0.6256	0.8858	0.4748	0.007
Mof_C 	C 	0.5499	0.0364	0.6576	0.005
Mof_C 	C 	0.4389	0.8914	0.4499	-0.071
Mof_C 	C 	0.8747	0.5489	0.6064	0.309
Mof_C 	C 	0.4178	0.9914	0.6415	0.277
Mof_C 	C 	0.4512	0.7728	0.5823	0.095
Mof_C 	C 	0.2389	0.7289	0.4033	0.08
Mof_C 	C 	0.6798	0.8378	0.4874	-0.025
Mof_C 	C 	0.3465	0.6807	0.6016	0.022
Mof_C 	C 	0.7998	0.8151	0.6092	0.015
Mof_C 	C 	0.052	0.2526	0.7458	0.003
Mof_C 	C 	0.5988	0.8159	0.5863	-0.077
Mof_C 	C 	0.2286	0.7531	0.4372	0.025
Mof_C 	C 	0.769	0.1187	0.6942	0.023
Mof_C 	C 	0.4733	0.0847	0.6508	-0.021
Mof_C 	C 	0.4974	0.7286	0.6016	0.011
Mof_C 	C 	0.0731	0.7314	0.4629	-0.059
Mof_C 	C 	0.0446	0.594	0.6055	-0.038
Mof_C 	C 	0.8725	0.1643	0.7132	0.008
Mof_C 	C 	0.5511	0.7962	0.4745	-0.035
Mof_C 	C 	0.8501	0.0694	0.6989	0.089
Mof_C 	C 	0.8023	0.1781	0.7476	0.09
Mof_C 	C 	0.7417	0.029	0.6811	-0.07
Mof_C 	C 	0.1276	0.2402	0.7114	-0.028
Mof_C 	C 	0.0899	0.6881	0.3947	-0.055
Mof_C 	C 	0.6967	0.7297	0.6252	-0.034
Mof_C 	C 	0.8475	0.7714	0.6284	-0.031
Mof_C 	C 	0.9274	0.6686	0.4208	-0.042
Mof_C 	C 	0.7581	0.6251	0.4128	0.306
Mof_C 	C 	0.9265	0.6894	0.455	-0.008
Mof_C 	C 	0.2331	0.6666	0.6337	-0.06
Mof_C 	C 	0.584	0.125	0.6688	-0.038
Mof_C 	C 	0.3135	0.6489	0.572	0.083
Mof_C 	C 	0.086	0.6231	0.6358	-0.01
Mof_C 	C 	0.885	0.2216	0.7645	-0.084
Mof_C 	C 	0.161	0.6065	0.5732	-0.053
Mof_C 	C 	0.155	0.2972	0.7662	0.268
Mof_C 	C 	0.0351	0.6971	0.805	-0.029
Mof_C 	C 	0.7699	0.4306	0.013	0.268
Mof_C 	C 	0.9628	0.3603	0.8858	0.259
Mof_C 	C 	0.3099	0.3486	0.0623	0.089
Mof_C 	C 	0.3681	0.3001	0.0519	0.014
Mof_C 	C 	0.6256	0.3858	0.0252	0.007
Mof_C 	C 	0.5499	0.5364	0.8424	0.005
Mof_C 	C 	0.4389	0.3914	0.0501	-0.071
Mof_C 	C 	0.8747	0.0489	0.8936	0.309
Mof_C 	C 	0.4178	0.4914	0.8585	0.277
Mof_C 	C 	0.4512	0.2728	0.9177	0.095
Mof_C 	C 	0.2389	0.2289	0.0967	0.08
Mof_C 	C 	0.6798	0.3378	0.0126	-0.025
Mof_C 	C 	0.3465	0.1807	0.8984	0.022
Mof_C 	C 	0.7998	0.3151	0.8908	0.015
Mof_C 	C 	0.052	0.7526	0.7542	0.003
Mof_C 	C 	0.5988	0.3159	0.9137	-0.077
Mof_C 	C 	0.2286	0.2531	0.0628	0.025
Mof_C 	C 	0.769	0.6187	0.8058	0.023
Mof_C 	C 	0.4733	0.5847	0.8492	-0.021
Mof_C 	C 	0.4974	0.2286	0.8984	0.011
Mof_C 	C 	0.0731	0.2314	0.0371	-0.06
Mof_C 	C 	0.0446	0.094	0.8945	-0.038
Mof_C 	C 	0.8725	0.6643	0.7868	0.008
Mof_C 	C 	0.5511	0.2962	0.0255	-0.035
Mof_C 	C 	0.8501	0.5694	0.8011	0.089
Mof_C 	C 	0.8023	0.6781	0.7524	0.09
Mof_C 	C 	0.7417	0.529	0.8189	-0.07
Mof_C 	C 	0.1276	0.7402	0.7886	-0.028
Mof_C 	C 	0.0899	0.1881	0.1053	-0.055
Mof_C 	C 	0.6967	0.2297	0.8748	-0.034
Mof_C 	C 	0.8475	0.2714	0.8716	-0.031
Mof_C 	C 	0.9274	0.1686	0.0792	-0.042
Mof_C 	C 	0.7581	0.1251	0.0872	0.306
Mof_C 	C 	0.9265	0.1894	0.045	-0.008
Mof_C 	C 	0.2331	0.1666	0.8663	-0.06
Mof_C 	C 	0.584	0.625	0.8312	-0.038
Mof_C 	C 	0.3135	0.1489	0.928	0.083
Mof_C 	C 	0.086	0.1231	0.8642	-0.009
Mof_C 	C 	0.885	0.7216	0.7355	-0.084
Mof_C 	C 	0.161	0.1065	0.9268	-0.053
Mof_C 	C 	0.155	0.7972	0.7338	0.268
Mof_C 	C 	0.9649	0.8029	0.305	-0.029
Mof_C 	C 	0.2301	0.0694	0.513	0.268
Mof_C 	C 	0.0372	0.1397	0.3858	0.258
Mof_C 	C 	0.6901	0.1514	0.5623	0.089
Mof_C 	C 	0.6319	0.1999	0.5519	0.014
Mof_C 	C 	0.3744	0.1142	0.5252	0.007
Mof_C 	C 	0.4501	0.9636	0.3424	0.005
Mof_C 	C 	0.5611	0.1086	0.5501	-0.071
Mof_C 	C 	0.1253	0.4511	0.3936	0.309
Mof_C 	C 	0.5822	0.0086	0.3585	0.277
Mof_C 	C 	0.5488	0.2272	0.4177	0.095
Mof_C 	C 	0.7611	0.2711	0.5967	0.08
Mof_C 	C 	0.3202	0.1622	0.5126	-0.025
Mof_C 	C 	0.6535	0.3193	0.3984	0.022
Mof_C 	C 	0.2002	0.1849	0.3908	0.015
Mof_C 	C 	0.948	0.7474	0.2542	0.003
Mof_C 	C 	0.4012	0.1841	0.4137	-0.077
Mof_C 	C 	0.7714	0.2469	0.5628	0.025
Mof_C 	C 	0.231	0.8813	0.3058	0.023
Mof_C 	C 	0.5267	0.9153	0.3492	-0.021
Mof_C 	C 	0.5026	0.2714	0.3984	0.011
Mof_C 	C 	0.9269	0.2686	0.5371	-0.059
Mof_C 	C 	0.9554	0.406	0.3945	-0.038
Mof_C 	C 	0.1275	0.8357	0.2868	0.008
Mof_C 	C 	0.4489	0.2038	0.5255	-0.035
Mof_C 	C 	0.1499	0.9306	0.3011	0.089
Mof_C 	C 	0.1977	0.8219	0.2524	0.09
Mof_C 	C 	0.2583	0.971	0.3189	-0.07
Mof_C 	C 	0.8724	0.7598	0.2886	-0.028
Mof_C 	C 	0.9101	0.3119	0.6053	-0.055
Mof_C 	C 	0.3033	0.2703	0.3748	-0.034
Mof_C 	C 	0.1525	0.2286	0.3716	-0.031
Mof_C 	C 	0.0726	0.3314	0.5792	-0.042
Mof_C 	C 	0.2419	0.3749	0.5872	0.306
Mof_C 	C 	0.0735	0.3106	0.545	-0.008
Mof_C 	C 	0.7669	0.3334	0.3663	-0.06
Mof_C 	C 	0.416	0.875	0.3312	-0.038
Mof_C 	C 	0.6865	0.3511	0.428	0.083
Mof_C 	C 	0.914	0.3769	0.3642	-0.01
Mof_C 	C 	0.115	0.7784	0.2355	-0.084
Mof_C 	C 	0.839	0.3935	0.4268	-0.053
Mof_C 	C 	0.845	0.7028	0.2338	0.268
Mof_N 	N 	0.8892	0.6423	0.9114	-0.008
Mof_N 	N 	0.7595	0.7227	0.0578	-0.011
Mof_N 	N 	0.5878	0.754	0.8753	-0.005
Mof_N 	N 	0.951	0.4409	0.224	0.002
Mof_N 	N 	0.559	0.8419	0.0373	0.001
Mof_N 	N 	0.365	0.3536	0.2692	0.002
Mof_N 	N 	0.1108	0.8577	0.4114	-0.008
Mof_N 	N 	0.2405	0.7773	0.5578	-0.011
Mof_N 	N 	0.4122	0.746	0.3753	-0.005
Mof_N 	N 	0.049	0.0591	0.724	0.002
Mof_N 	N 	0.441	0.6581	0.5373	0.001
Mof_N 	N 	0.635	0.1464	0.7692	0.002
Mof_N 	N 	0.1108	0.3577	0.0886	-0.008
Mof_N 	N 	0.2405	0.2773	0.9422	-0.011
Mof_N 	N 	0.4122	0.246	0.1247	-0.005
Mof_N 	N 	0.049	0.5591	0.776	0.002
Mof_N 	N 	0.441	0.1581	0.9627	0.001
Mof_N 	N 	0.635	0.6464	0.7308	0.002
Mof_N 	N 	0.8892	0.1423	0.5886	-0.008
Mof_N 	N 	0.7595	0.2227	0.4422	-0.011
Mof_N 	N 	0.5878	0.254	0.6247	-0.005
Mof_N 	N 	0.951	0.9409	0.276	0.002
Mof_N 	N 	0.559	0.3419	0.4627	0.001
Mof_N 	N 	0.365	0.8536	0.2308	0.002
Mof_O 	O 	0.074	0.5748	0.0119	-0.168
Mof_O 	O 	0.0839	0.6011	0.09555	-0.161
Mof_O 	O 	0.7225	0.5016	0.11495	-0.17
Mof_O 	O 	0.5508	0.5502	0.15577	-0.17
Mof_O 	O 	0.202	0.9674	0.0775	-0.207
Mof_O 	O 	0.8605	0.6419	0.13607	-0.158
Mof_O 	O 	0.9838	0.6016	0.912	-0.099
Mof_O 	O 	0.8903	0.7598	0.0525	-0.102
Mof_O 	O 	0.799	0.6824	0.0441	-0.102
Mof_O 	O 	0.9465	0.6751	0.8902	-0.104
Mof_O 	O 	0.4171	0.7267	0.8841	-0.103
Mof_O 	O 	0.6261	0.7675	0.8441	-0.113
Mof_O 	O 	0.326	0.9004	0.9376	-0.241
Mof_O 	O 	0.387	0.8137	0.0369	-0.106
Mof_O 	O 	0.196	0.9712	0.1335	-0.215
Mof_O 	O 	0.838	0.4094	0.237	-0.08
Mof_O 	O 	0.347	0.3974	0.2677	-0.078
Mof_O 	O 	0.8849	0.1991	0.29987	-0.188
Mof_O 	O 	0.7249	0.1683	0.25049	-0.18
Mof_O 	O 	0.635	0.8625	0.0105	-0.113
Mof_O 	O 	0.874	0.4804	0.2263	-0.078
Mof_O 	O 	0.484	0.3385	0.2905	-0.111
Mof_O 	O 	0.2992	0.886	0.8816	-0.226
Mof_O 	O 	0.2685	0.5277	0.97171	-0.159
Mof_O 	O 	0.228	0.0646	0.0613	-0.351
Mof_O 	O 	0.675	0.0108	0.1367	-0.346
Mof_O 	O 	0.29	0.0683	0.1417	-0.361
Mof_O 	O 	0.621	0.0041	0.0619	-0.353
Mof_O 	O 	0.926	0.9252	0.5119	-0.168
Mof_O 	O 	0.9161	0.8989	0.59555	-0.161
Mof_O 	O 	0.2775	0.9984	0.61495	-0.17
Mof_O 	O 	0.4492	0.9498	0.65577	-0.17
Mof_O 	O 	0.798	0.5326	0.5775	-0.207
Mof_O 	O 	0.1395	0.8581	0.63607	-0.158
Mof_O 	O 	0.0162	0.8984	0.412	-0.099
Mof_O 	O 	0.1097	0.7402	0.5525	-0.102
Mof_O 	O 	0.201	0.8176	0.5441	-0.102
Mof_O 	O 	0.0535	0.8249	0.3902	-0.104
Mof_O 	O 	0.5829	0.7733	0.3841	-0.103
Mof_O 	O 	0.3739	0.7325	0.3441	-0.113
Mof_O 	O 	0.674	0.5996	0.4376	-0.241
Mof_O 	O 	0.613	0.6863	0.5369	-0.106
Mof_O 	O 	0.804	0.5288	0.6335	-0.215
Mof_O 	O 	0.162	0.0906	0.737	-0.08
Mof_O 	O 	0.653	0.1026	0.7677	-0.078
Mof_O 	O 	0.1151	0.3009	0.79987	-0.188
Mof_O 	O 	0.2751	0.3317	0.75049	-0.18
Mof_O 	O 	0.365	0.6375	0.5105	-0.113
Mof_O 	O 	0.126	0.0196	0.7263	-0.078
Mof_O 	O 	0.516	0.1615	0.7905	-0.111
Mof_O 	O 	0.7008	0.614	0.3816	-0.226
Mof_O 	O 	0.7315	0.9723	0.47171	-0.159
Mof_O 	O 	0.772	0.4354	0.5613	-0.351
Mof_O 	O 	0.325	0.4892	0.6367	-0.346
Mof_O 	O 	0.71	0.4317	0.6417	-0.361
Mof_O 	O 	0.379	0.4959	0.5619	-0.353
Mof_O 	O 	0.926	0.4252	0.9881	-0.168
Mof_O 	O 	0.9161	0.3989	0.90445	-0.161
Mof_O 	O 	0.2775	0.4984	0.88505	-0.17
Mof_O 	O 	0.4492	0.4498	0.84423	-0.17
Mof_O 	O 	0.798	0.0326	0.9225	-0.207
Mof_O 	O 	0.1395	0.3581	0.86393	-0.158
Mof_O 	O 	0.0162	0.3984	0.088	-0.099
Mof_O 	O 	0.1097	0.2402	0.9475	-0.102
Mof_O 	O 	0.201	0.3176	0.9559	-0.102
Mof_O 	O 	0.0535	0.3249	0.1098	-0.104
Mof_O 	O 	0.5829	0.2733	0.1159	-0.103
Mof_O 	O 	0.3739	0.2325	0.1559	-0.113
Mof_O 	O 	0.674	0.0996	0.0624	-0.241
Mof_O 	O 	0.613	0.1863	0.9631	-0.106
Mof_O 	O 	0.804	0.0288	0.8665	-0.215
Mof_O 	O 	0.162	0.5906	0.763	-0.08
Mof_O 	O 	0.653	0.6026	0.7323	-0.078
Mof_O 	O 	0.1151	0.8009	0.70013	-0.188
Mof_O 	O 	0.2751	0.8317	0.74951	-0.18
Mof_O 	O 	0.365	0.1375	0.9895	-0.113
Mof_O 	O 	0.126	0.5196	0.7737	-0.078
Mof_O 	O 	0.516	0.6615	0.7095	-0.111
Mof_O 	O 	0.7008	0.114	0.1184	-0.226
Mof_O 	O 	0.7315	0.4723	0.02829	-0.159
Mof_O 	O 	0.772	0.9354	0.9387	-0.351
Mof_O 	O 	0.325	0.9892	0.8633	-0.346
Mof_O 	O 	0.71	0.9317	0.8583	-0.361
Mof_O 	O 	0.379	0.9959	0.9381	-0.353
Mof_O 	O 	0.074	0.0748	0.4881	-0.168
Mof_O 	O 	0.0839	0.1011	0.40445	-0.161
Mof_O 	O 	0.7225	0.0016	0.38505	-0.17
Mof_O 	O 	0.5508	0.0502	0.34423	-0.17
Mof_O 	O 	0.202	0.4674	0.4225	-0.207
Mof_O 	O 	0.8605	0.1419	0.36393	-0.158
Mof_O 	O 	0.9838	0.1016	0.588	-0.099
Mof_O 	O 	0.8903	0.2598	0.4475	-0.102
Mof_O 	O 	0.799	0.1824	0.4559	-0.102
Mof_O 	O 	0.9465	0.1751	0.6098	-0.104
Mof_O 	O 	0.4171	0.2267	0.6159	-0.103
Mof_O 	O 	0.6261	0.2675	0.6559	-0.113
Mof_O 	O 	0.326	0.4004	0.5624	-0.241
Mof_O 	O 	0.387	0.3137	0.4631	-0.106
Mof_O 	O 	0.196	0.4712	0.3665	-0.215
Mof_O 	O 	0.838	0.9094	0.263	-0.08
Mof_O 	O 	0.347	0.8974	0.2323	-0.078
Mof_O 	O 	0.8849	0.6991	0.20013	-0.188
Mof_O 	O 	0.7249	0.6683	0.24951	-0.18
Mof_O 	O 	0.635	0.3625	0.4895	-0.113
Mof_O 	O 	0.874	0.9804	0.2737	-0.078
Mof_O 	O 	0.484	0.8385	0.2095	-0.111
Mof_O 	O 	0.2992	0.386	0.6184	-0.226
Mof_O 	O 	0.2685	0.0277	0.52829	-0.159
Mof_O 	O 	0.228	0.5646	0.4387	-0.351
Mof_O 	O 	0.675	0.5108	0.3633	-0.346
Mof_O 	O 	0.29	0.5683	0.3583	-0.361
Mof_O 	O 	0.621	0.5041	0.4381	-0.353
_end
