# CIF file generated by openbabel 3.1.0, see https://openbabel.org
data_I
_chemical_name_common 'ja903726m_si_002_clean'
_cell_length_a 16.0096
_cell_length_b 16.0093
_cell_length_c 16.0093
_cell_angle_alpha 108.731
_cell_angle_beta 108.732
_cell_angle_gamma 110.962
_space_group_name_H-M_alt 'P 1'
_space_group_name_Hall 'P 1'
loop_
    _symmetry_equiv_pos_as_xyz
    x,y,z
loop_
    _atom_site_label
    _atom_site_type_symbol
    _atom_site_fract_x
    _atom_site_fract_y
    _atom_site_fract_z
    _atom_site_occupancy
    Ti1      Ti       0.28907    0.57933    0.87045    1.000
    Ti2      Ti       0.57626    0.70969    0.28285    1.000
    Ti3      Ti       0.42210    0.29618    0.71754    1.000
    Ti4      Ti       0.57361    0.29122    0.87121    1.000
    Ti5      Ti       0.70455    0.57864    0.28246    1.000
    Ti6      Ti       0.41863    0.70889    0.12955    1.000
    Ti7      Ti       0.29341    0.42684    0.71715    1.000
    Ti8      Ti       0.70240    0.42001    0.12879    1.000
    C9       C        0.95932    0.43570    0.39715    1.000
    C10      C        0.49496    0.99345    0.90862    1.000
    C11      C        0.90375    0.42512    0.90839    1.000
    C12      C        0.80523    0.80847    0.39478    1.000
    C13      C        0.19356    0.19749    0.60238    1.000
    C14      C        0.56217    0.03855    0.60285    1.000
    C15      C        0.08986    0.54290    0.00000    1.000
    C16      C        0.45853    0.89907    0.90863    1.000
    C17      C        0.49705    0.84437    0.34376    1.000
    C18      C        0.55820    0.08827    0.00000    1.000
    C19      C        0.09360    0.09746    0.54480    1.000
    C20      C        0.49696    0.92418    0.42415    1.000
    C21      C        0.99993    0.09519    0.52203    1.000
    C22      C        0.90514    0.90839    0.45120    1.000
    C23      C        0.59117    0.59511    0.39761    1.000
    C24      C        0.57162    0.48377    0.48015    1.000
    C25      C        0.09147    0.00362    0.51985    1.000
    C26      C        0.58638    0.08482    0.09137    1.000
    C27      C        0.15329    0.50061    0.65625    1.000
    C28      C        0.54995    0.99044    0.09136    1.000
    C29      C        0.43174    0.96256    0.39821    1.000
    C30      C        0.43186    0.03793    0.47344    1.000
    C31      C        0.48314    0.89564    0.00000    1.000
    C32      C        0.59101    0.18948    0.00000    1.000
    C33      C        0.56218    0.96330    0.52760    1.000
    C34      C        0.43130    0.52626    0.52405    1.000
    C35      C        0.99536    0.51673    0.09161    1.000
    C36      C        0.07281    0.50003    0.57586    1.000
    C37      C        0.52503    0.43688    0.52625    1.000
    C38      C        0.90177    0.44670    0.00000    1.000
    C39      C        0.03352    0.56435    0.60179    1.000
    C40      C        0.84013    0.50011    0.34281    1.000
    C41      C        0.95842    0.56449    0.52656    1.000
    C42      C        0.43493    0.79281    0.00000    1.000
    C43      C        0.90725    0.00221    0.47595    1.000
    C44      C        0.99878    0.91063    0.47375    1.000
    C45      C        0.54879    0.55266    0.45520    1.000
    C46      C        0.45395    0.45720    0.54881    1.000
    C47      C        0.99635    0.47244    0.90839    1.000
    C48      C        0.18937    0.58774    0.00000    1.000
    C49      C        0.03458    0.43570    0.47240    1.000
    C50      C        0.47790    0.57315    0.47797    1.000
    C51      C        0.49709    0.07708    0.57689    1.000
    C52      C        0.92019    0.50018    0.42311    1.000
    C53      C        0.80205    0.40442    0.00000    1.000
    C54      C        0.41045    0.41370    0.60523    1.000
    C55      C        0.49732    0.15730    0.65719    1.000
    C56      C        0.08796    0.56406    0.09161    1.000
    O57      O        0.35150    0.43928    0.62889    1.000
    O58      O        0.64574    0.27284    0.08437    1.000
    O59      O        0.18436    0.55789    0.74855    1.000
    O60      O        0.37971    0.57811    0.81016    1.000
    O61      O        0.56137    0.18847    0.91563    1.000
    O62      O        0.75948    0.57037    0.18776    1.000
    O63      O        0.33691    0.72704    0.91630    1.000
    O64      O        0.43581    0.80935    0.25145    1.000
    O65      O        0.80342    0.43108    0.08410    1.000
    O66      O        0.80538    0.43929    0.25046    1.000
    O67      O        0.59704    0.39569    0.00000    1.000
    O68      O        0.72261    0.81039    0.37112    1.000
    O69      O        0.18979    0.44425    0.63152    1.000
    O70      O        0.27618    0.19596    0.62692    1.000
    O71      O        0.39609    0.60540    0.00000    1.000
    O72      O        0.44008    0.19289    0.63227    1.000
    O73      O        0.55492    0.18883    0.74955    1.000
    O74      O        0.42372    0.23676    0.80917    1.000
    O75      O        0.27214    0.64674    0.08450    1.000
    O76      O        0.71933    0.34698    0.91591    1.000
    O77      O        0.56418    0.65215    0.37169    1.000
    O78      O        0.61455    0.42759    0.19083    1.000
    O79      O        0.55827    0.81273    0.36848    1.000
    O80      O        0.56955    0.76795    0.18984    1.000
    O81      O        0.80780    0.56062    0.36773    1.000
    O82      O        0.64926    0.56904    0.37308    1.000
    O83      O        0.42063    0.81075    0.08371    1.000
    O84      O        0.23690    0.43014    0.81009    1.000
    O85      O        0.80637    0.72533    0.36926    1.000
    O86      O        0.19249    0.28046    0.62831    1.000
    O87      O        0.18763    0.56223    0.91550    1.000
    O88      O        0.43711    0.35607    0.63074    1.000
    O89      O        0.57172    0.38261    0.81224    1.000
    O90      O        0.39886    0.40274    0.79915    1.000
    O91      O        0.42680    0.62005    0.18991    1.000
    O92      O        0.59970    0.60358    0.20085    1.000
    H93      H        0.93188    0.38509    0.31839    1.000
    H94      H        0.47186    0.99195    0.83649    1.000
    H95      H        0.83336    0.37246    0.83629    1.000
    H96      H        0.61349    0.06669    0.68161    1.000
    H97      H        0.40894    0.82844    0.83651    1.000
    H98      H        0.99819    0.16562    0.54082    1.000
    H99      H        0.62494    0.46506    0.46311    1.000
    H100     H        0.16183    0.00196    0.53689    1.000
    H101     H        0.63544    0.15546    0.16351    1.000
    H102     H        0.57250    0.99192    0.16348    1.000
    H103     H        0.38045    0.93448    0.31946    1.000
    H104     H        0.38064    0.06550    0.45040    1.000
    H105     H        0.61343    0.93575    0.55063    1.000
    H106     H        0.37788    0.54487    0.54095    1.000
    H107     H        0.99708    0.53618    0.16372    1.000
    H108     H        0.54544    0.38512    0.54491    1.000
    H109     H        0.06098    0.61501    0.68054    1.000
    H110     H        0.93024    0.61510    0.54960    1.000
    H111     H        0.83693    0.00392    0.45906    1.000
    H112     H        0.00054    0.84021    0.45509    1.000
    H113     H        0.99456    0.45326    0.83628    1.000
    H114     H        0.06281    0.38513    0.44937    1.000
    H115     H        0.45737    0.62480    0.45918    1.000
    H116     H        0.15829    0.61699    0.16372    1.000
