data_functionalizedCrystal
_audit_creation_method	'EQeq! by Chris Wilmer'
_symmetry_space_group_name_H-M	'P1'
_symmetry_Int_Tables_number	1
_symmetry_cell_setting	triclinic
loop_
_symmetry_equiv_pos_as_xyz
  x,y,z
_cell_length_a	10.927
_cell_length_b	19.807
_cell_length_c	20.391
_cell_angle_alpha	90
_cell_angle_beta	90
_cell_angle_gamma	99.61
loop_
_atom_site_label
_atom_site_type_symbol
_atom_site_fract_x
_atom_site_fract_y
_atom_site_fract_z
_atom_site_charge
Mof_Nd	Nd	0.34111	0.58197	0.37302	1.528
Mof_Nd	Nd	0.03743	0.84552	0.37212	1.912
Mof_Nd	Nd	0.65889	0.41803	0.62698	1.528
Mof_Nd	Nd	0.53743	0.34552	0.12788	1.924
Mof_Nd	Nd	0.46257	0.65448	0.87212	1.924
Mof_Nd	Nd	0.84111	0.08197	0.12698	1.524
Mof_Nd	Nd	0.15889	0.91803	0.87302	1.525
Mof_Nd	Nd	0.96257	0.15448	0.62788	1.913
Mof_Cu	Cu	0.41986	0.66849	0.67391	0.879
Mof_Cu	Cu	0.58014	0.33151	0.32609	0.879
Mof_Cu	Cu	0.08014	0.83151	0.17391	0.877
Mof_Cu	Cu	0.29529	0.58979	0.17337	0.917
Mof_Cu	Cu	0.70471	0.41021	0.82663	0.917
Mof_Cu	Cu	0.20471	0.91021	0.67337	0.917
Mof_Cu	Cu	0.79529	0.08979	0.32663	0.917
Mof_Cu	Cu	0.91986	0.16849	0.82609	0.877
Mof_H 	H 	0.4869	0.073	0.813	0.007
Mof_H 	H 	0.7683	0.6762	0.3175	0.022
Mof_H 	H 	0.1056	0.2476	0.1876	0.034
Mof_H 	H 	0.0131	0.427	0.313	0.007
Mof_H 	H 	0.5131	0.927	0.187	0.007
Mof_H 	H 	0.8696	0.4957	0.1968	0.04
Mof_H 	H 	0.3696	0.9957	0.3032	0.039
Mof_H 	H 	0.9172	0.5629	0.9216	0.059
Mof_H 	H 	0.4172	0.0629	0.5784	0.058
Mof_H 	H 	0.2683	0.1762	0.1825	0.021
Mof_H 	H 	0.8944	0.7524	0.8124	0.034
Mof_H 	H 	0.2317	0.3238	0.6825	0.022
Mof_H 	H 	0.5828	0.9371	0.4216	0.058
Mof_H 	H 	0.3944	0.2524	0.6876	0.035
Mof_H 	H 	0.6304	0.0043	0.6968	0.039
Mof_H 	H 	0.9869	0.573	0.687	0.007
Mof_H 	H 	0.7317	0.8238	0.8175	0.021
Mof_H 	H 	0.6056	0.7476	0.3124	0.035
Mof_H 	H 	0.1304	0.5043	0.8032	0.04
Mof_H 	H 	0.0828	0.4371	0.0784	0.059
Mof_C 	C 	0.9178	0.2006	0.2651	0.384
Mof_C 	C 	0.9093	0.9295	0.8313	0.318
Mof_C 	C 	0.7114	0.5761	0.2964	-0.065
Mof_C 	C 	0.3657	0.0992	0.7471	-0.105
Mof_C 	C 	0.4687	0.1095	0.7882	0.025
Mof_C 	C 	0.2451	0.0224	0.2407	-0.083
Mof_C 	C 	0.2977	0.0273	0.7406	0.42
Mof_C 	C 	0.2617	0.5245	0.0319	0.314
Mof_C 	C 	0.1646	0.3469	0.2109	-0.032
Mof_C 	C 	0.2114	0.0761	0.2036	-0.067
Mof_C 	C 	0.66	0.1042	0.5749	0.379
Mof_C 	C 	0.0313	0.3905	0.2882	0.025
Mof_C 	C 	0.7886	0.9239	0.7964	-0.067
Mof_C 	C 	0.9653	0.3945	0.8279	0.319
Mof_C 	C 	0.2151	0.1463	0.6721	0.321
Mof_C 	C 	0.0786	0.4033	0.7861	-0.04
Mof_C 	C 	0.5822	0.2994	0.7651	0.383
Mof_C 	C 	0.1602	0.6773	0.6677	0.354
Mof_C 	C 	0.0128	0.7289	0.7439	-0.082
Mof_C 	C 	0.5128	0.2289	0.7561	-0.08
Mof_C 	C 	0.8734	0.4869	0.9864	-0.032
Mof_C 	C 	0.4653	0.8945	0.6721	0.322
Mof_C 	C 	0.8657	0.5992	0.7529	-0.104
Mof_C 	C 	0.7023	0.9727	0.2594	0.42
Mof_C 	C 	0.9567	0.7215	0.2415	0.417
Mof_C 	C 	0.3259	0.5505	0.7328	0.433
Mof_C 	C 	0.5495	0.9628	0.453	0.004
Mof_C 	C 	0.6518	0.9675	0.7199	-0.001
Mof_C 	C 	0.6266	0.0131	0.4864	-0.031
Mof_C 	C 	0.0448	0.6726	0.7068	-0.075
Mof_C 	C 	0.4872	0.7711	0.2439	-0.08
Mof_C 	C 	0.0882	0.283	0.2142	0
Mof_C 	C 	0.1111	0.3493	0.7496	-0.118
Mof_C 	C 	0.4118	0.217	0.7142	-0.003
Mof_C 	C 	0.6343	0.9008	0.2529	-0.105
Mof_C 	C 	0.7549	0.9776	0.7593	-0.083
Mof_C 	C 	0.0822	0.7994	0.7349	0.384
Mof_C 	C 	0.3354	0.1531	0.7109	-0.03
Mof_C 	C 	0.9872	0.2711	0.2561	-0.082
Mof_C 	C 	0.0433	0.2785	0.7585	0.417
Mof_C 	C 	0.2867	0.1402	0.2079	0.011
Mof_C 	C 	0.5313	0.8905	0.2118	0.025
Mof_C 	C 	0.0495	0.4628	0.047	0.002
Mof_C 	C 	0.9552	0.3274	0.2932	-0.075
Mof_C 	C 	0.9214	0.5967	0.2139	-0.04
Mof_C 	C 	0.5347	0.1055	0.3279	0.322
Mof_C 	C 	0.2023	0.4727	0.2406	0.415
Mof_C 	C 	0.4505	0.0372	0.547	0.004
Mof_C 	C 	0.6111	0.8493	0.7504	-0.118
Mof_C 	C 	0.3398	0.8227	0.1677	0.354
Mof_C 	C 	0.7151	0.6463	0.8279	0.323
Mof_C 	C 	0.7977	0.5273	0.7594	0.415
Mof_C 	C 	0.2549	0.4776	0.7407	-0.087
Mof_C 	C 	0.4215	0.9495	0.4654	-0.06
Mof_C 	C 	0.1266	0.5131	0.0136	-0.032
Mof_C 	C 	0.7849	0.8537	0.3279	0.321
Mof_C 	C 	0.1518	0.4675	0.7801	-0.003
Mof_C 	C 	0.2133	0.3598	0.7079	0.01
Mof_C 	C 	0.34	0.8958	0.4251	0.379
Mof_C 	C 	0.5433	0.7785	0.7415	0.418
Mof_C 	C 	0.6741	0.4495	0.2672	0.433
Mof_C 	C 	0.6602	0.1773	0.8323	0.354
Mof_C 	C 	0.8889	0.6507	0.2504	-0.118
Mof_C 	C 	0.4214	0.0967	0.2861	-0.043
Mof_C 	C 	0.7867	0.6402	0.2921	0.01
Mof_C 	C 	0.9118	0.717	0.7858	0
Mof_C 	C 	0.1343	0.4008	0.2471	-0.104
Mof_C 	C 	0.9505	0.5372	0.953	0.002
Mof_C 	C 	0.0347	0.6055	0.1721	0.319
Mof_C 	C 	0.6646	0.8469	0.2891	-0.03
Mof_C 	C 	0.2886	0.4239	0.7036	-0.065
Mof_C 	C 	0.1741	0.9495	0.2328	0.429
Mof_C 	C 	0.4567	0.2215	0.2585	0.418
Mof_C 	C 	0.7383	0.4755	0.9681	0.314
Mof_C 	C 	0.5786	0.9033	0.7139	-0.043
Mof_C 	C 	0.3734	0.9869	0.5136	-0.031
Mof_C 	C 	0.7451	0.5224	0.2593	-0.087
Mof_C 	C 	0.8259	0.0505	0.7672	0.429
Mof_C 	C 	0.3889	0.1507	0.2496	-0.118
Mof_C 	C 	0.2383	0.9755	0.5319	0.309
Mof_C 	C 	0.0785	0.5505	0.9654	-0.057
Mof_C 	C 	0.3482	0.0325	0.2801	-0.001
Mof_C 	C 	0.8482	0.5325	0.2199	-0.003
Mof_C 	C 	0.9687	0.6095	0.7118	0.025
Mof_C 	C 	0.84	0.3958	0.0749	0.379
Mof_C 	C 	0.2849	0.3537	0.1721	0.323
Mof_C 	C 	0.4178	0.7006	0.2349	0.383
Mof_C 	C 	0.5448	0.1726	0.7932	-0.075
Mof_C 	C 	0.9215	0.4495	0.0346	-0.057
Mof_C 	C 	0.7133	0.8598	0.7921	0.011
Mof_C 	C 	0.8354	0.6531	0.7891	-0.032
Mof_C 	C 	0.16	0.6042	0.9251	0.379
Mof_C 	C 	0.5882	0.783	0.2858	-0.003
Mof_C 	C 	0.5785	0.0505	0.5346	-0.06
Mof_C 	C 	0.0907	0.0705	0.1687	0.318
Mof_C 	C 	0.4552	0.8274	0.2068	-0.075
Mof_C 	C 	0.4093	0.4295	0.6687	0.312
Mof_C 	C 	0.7617	0.0245	0.4681	0.309
Mof_C 	C 	0.5907	0.5705	0.3313	0.312
Mof_C 	C 	0.8398	0.3227	0.3323	0.354
Mof_O 	O 	0.2407	0.8038	0.1979	-0.4
Mof_O 	O 	0.3079	0.5765	0.0648	-0.355
Mof_O 	O 	0.9087	0.1592	0.2186	-0.503
Mof_O 	O 	0.2741	0.6031	0.9249	-0.523
Mof_O 	O 	0.7593	0.1962	0.8021	-0.4
Mof_O 	O 	0.7214	0.9941	0.3176	-0.41
Mof_O 	O 	0.8406	0.0731	0.8245	-0.463
Mof_O 	O 	0.9633	0.7633	0.2881	-0.56
Mof_O 	O 	0.3406	0.5731	0.6755	-0.463
Mof_O 	O 	0.4732	0.897	0.6125	-0.26
Mof_O 	O 	0.7407	0.3038	0.3021	-0.399
Mof_O 	O 	0.1221	0.1104	0.699	-0.423
Mof_O 	O 	0.6245	0.3145	0.8221	-0.407
Mof_O 	O 	0.0268	0.603	0.1125	-0.26
Mof_O 	O 	0.3755	0.6855	0.1779	-0.407
Mof_O 	O 	0.8602	0.084	0.7168	-0.527
Mof_O 	O 	0.7305	0.0079	0.2088	-0.528
Mof_O 	O 	0.497	0.5325	0.3058	-0.411
Mof_O 	O 	0.3779	0.3896	0.199	-0.427
Mof_O 	O 	0.6921	0.4235	0.9352	-0.355
Mof_O 	O 	0.2786	0.0059	0.6824	-0.41
Mof_O 	O 	0.1376	0.6143	0.2048	-0.38
Mof_O 	O 	0.1594	0.9269	0.1755	-0.463
Mof_O 	O 	0.501	0.763	0.6849	-0.434
Mof_O 	O 	0.7786	0.5059	0.8176	-0.411
Mof_O 	O 	0.6507	0.1576	0.8906	-0.338
Mof_O 	O 	0.997	0.0325	0.1942	-0.415
Mof_O 	O 	0.1077	0.6451	0.8917	-0.317
Mof_O 	O 	0.8755	0.1855	0.3221	-0.407
Mof_O 	O 	0.7934	0.8223	0.3798	-0.428
Mof_O 	O 	0.503	0.4675	0.6942	-0.411
Mof_O 	O 	0.2305	0.5079	0.2912	-0.526
Mof_O 	O 	0.1775	0.0209	0.5121	-0.275
Mof_O 	O 	0.6594	0.4269	0.3245	-0.463
Mof_O 	O 	0.6398	0.416	0.2168	-0.527
Mof_O 	O 	0.9732	0.397	0.8875	-0.26
Mof_O 	O 	0.2695	0.9921	0.7912	-0.528
Mof_O 	O 	0.2934	0.3223	0.1202	-0.43
Mof_O 	O 	0.1245	0.8145	0.6779	-0.407
Mof_O 	O 	0.8225	0.9791	0.4879	-0.275
Mof_O 	O 	0.0367	0.2367	0.7119	-0.56
Mof_O 	O 	0.499	0.237	0.3151	-0.434
Mof_O 	O 	0.3225	0.4791	0.0121	-0.28
Mof_O 	O 	0.2593	0.6962	0.6979	-0.399
Mof_O 	O 	0.4201	0.3938	0.6195	-0.447
Mof_O 	O 	0.001	0.263	0.8151	-0.431
Mof_O 	O 	0.0913	0.8408	0.7814	-0.503
Mof_O 	O 	0.8493	0.3424	0.3906	-0.338
Mof_O 	O 	0.1398	0.916	0.2832	-0.527
Mof_O 	O 	0.7066	0.6777	0.8798	-0.43
Mof_O 	O 	0.6221	0.6104	0.801	-0.427
Mof_O 	O 	0.6376	0.1143	0.2952	-0.38
Mof_O 	O 	0.5913	0.3408	0.7186	-0.502
Mof_O 	O 	0.5268	0.103	0.3875	-0.26
Mof_O 	O 	0.4087	0.6592	0.2814	-0.502
Mof_O 	O 	0.3602	0.584	0.7832	-0.527
Mof_O 	O 	0.7741	0.1031	0.5751	-0.522
Mof_O 	O 	0.3923	0.8549	0.3917	-0.317
Mof_O 	O 	0.2066	0.1777	0.6202	-0.428
Mof_O 	O 	0.7259	0.3969	0.0751	-0.523
Mof_O 	O 	0.8079	0.0765	0.4352	-0.355
Mof_O 	O 	0.6775	0.5209	0.9879	-0.28
Mof_O 	O 	0.2214	0.4941	0.1824	-0.411
Mof_O 	O 	0.5367	0.7367	0.7881	-0.564
Mof_O 	O 	0.003	0.9675	0.8058	-0.415
Mof_O 	O 	0.3624	0.8857	0.7048	-0.38
Mof_O 	O 	0.6077	0.1451	0.6083	-0.317
Mof_O 	O 	0.1507	0.6576	0.6094	-0.338
Mof_O 	O 	0.7695	0.4921	0.7088	-0.526
Mof_O 	O 	0.5799	0.6062	0.3805	-0.447
Mof_O 	O 	0.9201	0.8938	0.8805	-0.447
Mof_O 	O 	0.3493	0.8424	0.1094	-0.338
Mof_O 	O 	0.999	0.737	0.1849	-0.431
Mof_O 	O 	0.4633	0.2633	0.2119	-0.564
Mof_O 	O 	0.0799	0.1062	0.1195	-0.447
Mof_O 	O 	0.8923	0.3549	0.1083	-0.317
Mof_O 	O 	0.1921	0.9235	0.5648	-0.355
Mof_O 	O 	0.2259	0.8969	0.4249	-0.522
Mof_O 	O 	0.8779	0.8896	0.301	-0.423
Mof_O 	O 	0.8624	0.3857	0.7952	-0.38
_end
