data_functionalizedCrystal
_audit_creation_method	'EQeq! by Chris Wilmer'
_symmetry_space_group_name_H-M	'P1'
_symmetry_Int_Tables_number	1
_symmetry_cell_setting	triclinic
loop_
_symmetry_equiv_pos_as_xyz
  x,y,z
_cell_length_a	17.4878
_cell_length_b	16.5108
_cell_length_c	7.1382
_cell_angle_alpha	90
_cell_angle_beta	99.026
_cell_angle_gamma	90
loop_
_atom_site_label
_atom_site_type_symbol
_atom_site_fract_x
_atom_site_fract_y
_atom_site_fract_z
_atom_site_charge
Mof_Cu	Cu	0.78504	0.77292	0.99336	0.851
Mof_N 	N 	0.7781	0.6658	0.1482	-0.251
Mof_N 	N 	0.7221	0.3653	0.8246	-0.242
Mof_N 	N 	0.8738	0.7732	0.8437	-0.253
Mof_N 	N 	0.68	0.7727	0.8101	-0.237
Mof_C 	C 	0.8332	0.6412	0.2673	0.116
Mof_H 	H 	0.8819	0.6627	0.2619	-0.034
Mof_C 	C 	0.8272	0.584	0.4076	-0.17
Mof_H 	H 	0.8709	0.5694	0.4927	0.081
Mof_C 	C 	0.757	0.5489	0.4209	0.073
Mof_C 	C 	0.6983	0.5745	0.2875	-0.166
Mof_H 	H 	0.6491	0.5529	0.2849	0.08
Mof_C 	C 	0.7103	0.6316	0.1568	0.092
Mof_H 	H 	0.6681	0.6474	0.0683	-0.021
Mof_C 	C 	0.7452	0.4866	0.5651	0.044
Mof_C 	C 	0.6912	0.4937	0.6806	-0.147
Mof_H 	H 	0.6609	0.5401	0.6753	0.075
Mof_C 	C 	0.681	0.4337	0.8039	0.085
Mof_H 	H 	0.6427	0.4408	0.8793	-0.02
Mof_C 	C 	0.7766	0.3572	0.7026	0.059
Mof_H 	H 	0.8052	0.3096	0.708	-0.012
Mof_C 	C 	0.7903	0.4143	0.5777	-0.134
Mof_H 	H 	0.8282	0.4068	0.5013	0.074
Mof_C 	C 	0.8875	0.7062	0.7506	0.076
Mof_H 	H 	0.8628	0.6586	0.7766	-0.021
Mof_C 	C 	0.937	0.7041	0.6169	-0.146
Mof_H 	H 	0.9448	0.6559	0.5551	0.071
Mof_C 	C 	0.9746	0.7737	0.576	0.058
Mof_C 	C 	0.9602	0.8397	0.671	-0.161
Mof_H 	H 	0.9842	0.8882	0.6485	0.079
Mof_C 	C 	0.9097	0.8375	0.8037	0.099
Mof_H 	H 	0.9015	0.8852	0.8671	-0.028
Mof_C 	C 	0.6646	0.7223	0.6661	0.085
Mof_H 	H 	0.703	0.6857	0.6466	-0.02
Mof_C 	C 	0.5962	0.7196	0.5429	-0.15
Mof_H 	H 	0.5894	0.6823	0.4443	0.078
Mof_C 	C 	0.5377	0.7727	0.566	0.054
Mof_C 	C 	0.553	0.8271	0.7183	-0.142
Mof_H 	H 	0.5156	0.8644	0.7403	0.076
Mof_C 	C 	0.6222	0.8253	0.8328	0.07
Mof_H 	H 	0.6308	0.862	0.9327	-0.011
Mof_Cu	Cu	0.28504	0.27292	0.99336	0.851
Mof_N 	N 	0.2781	0.1658	0.1482	-0.249
Mof_N 	N 	0.2221	0.8653	0.8246	-0.239
Mof_N 	N 	0.3738	0.2732	0.8437	-0.253
Mof_N 	N 	0.18	0.2727	0.8101	-0.238
Mof_C 	C 	0.3332	0.1412	0.2673	0.11
Mof_H 	H 	0.3819	0.1627	0.2619	-0.033
Mof_C 	C 	0.3272	0.084	0.4076	-0.163
Mof_H 	H 	0.3709	0.0694	0.4927	0.076
Mof_C 	C 	0.257	0.0489	0.4209	0.058
Mof_C 	C 	0.1983	0.0745	0.2875	-0.158
Mof_H 	H 	0.1491	0.0529	0.2849	0.073
Mof_C 	C 	0.2103	0.1316	0.1568	0.086
Mof_H 	H 	0.1681	0.1474	0.0683	-0.02
Mof_C 	C 	0.2452	0.9866	0.5651	0.049
Mof_C 	C 	0.1912	0.9937	0.6806	-0.123
Mof_H 	H 	0.1609	0.0401	0.6753	0.059
Mof_C 	C 	0.181	0.9337	0.8039	0.074
Mof_H 	H 	0.1427	0.9408	0.8793	-0.014
Mof_C 	C 	0.2766	0.8572	0.7026	0.059
Mof_H 	H 	0.3052	0.8096	0.708	-0.012
Mof_C 	C 	0.2903	0.9143	0.5777	-0.134
Mof_H 	H 	0.3282	0.9068	0.5013	0.076
Mof_C 	C 	0.3875	0.2062	0.7506	0.076
Mof_H 	H 	0.3628	0.1586	0.7766	-0.022
Mof_C 	C 	0.437	0.2041	0.6169	-0.146
Mof_H 	H 	0.4448	0.1559	0.5551	0.07
Mof_C 	C 	0.4746	0.2737	0.576	0.058
Mof_C 	C 	0.4602	0.3397	0.671	-0.161
Mof_H 	H 	0.4842	0.3882	0.6485	0.077
Mof_C 	C 	0.4097	0.3375	0.8037	0.099
Mof_H 	H 	0.4015	0.3852	0.8671	-0.029
Mof_C 	C 	0.1646	0.2223	0.6661	0.084
Mof_H 	H 	0.203	0.1857	0.6466	-0.02
Mof_C 	C 	0.0962	0.2196	0.5429	-0.15
Mof_H 	H 	0.0894	0.1823	0.4443	0.077
Mof_C 	C 	0.0377	0.2727	0.566	0.053
Mof_C 	C 	0.053	0.3271	0.7183	-0.142
Mof_H 	H 	0.0156	0.3644	0.7403	0.074
Mof_C 	C 	0.1222	0.3253	0.8328	0.069
Mof_H 	H 	0.1308	0.362	0.9327	-0.012
Mof_Cu	Cu	0.21496	0.77292	0.00664	0.851
Mof_N 	N 	0.2219	0.6658	0.8518	-0.251
Mof_N 	N 	0.2779	0.3653	0.1754	-0.242
Mof_N 	N 	0.1262	0.7732	0.1563	-0.253
Mof_N 	N 	0.32	0.7727	0.1899	-0.237
Mof_C 	C 	0.1668	0.6412	0.7327	0.116
Mof_H 	H 	0.1181	0.6627	0.7381	-0.034
Mof_C 	C 	0.1728	0.584	0.5924	-0.17
Mof_H 	H 	0.1291	0.5694	0.5073	0.081
Mof_C 	C 	0.243	0.5489	0.5791	0.073
Mof_C 	C 	0.3017	0.5745	0.7125	-0.166
Mof_H 	H 	0.3509	0.5529	0.7151	0.08
Mof_C 	C 	0.2897	0.6316	0.8432	0.092
Mof_H 	H 	0.3319	0.6474	0.9317	-0.021
Mof_C 	C 	0.2548	0.4866	0.4349	0.044
Mof_C 	C 	0.3088	0.4937	0.3194	-0.147
Mof_H 	H 	0.3391	0.5401	0.3247	0.075
Mof_C 	C 	0.319	0.4337	0.1961	0.085
Mof_H 	H 	0.3573	0.4408	0.1207	-0.02
Mof_C 	C 	0.2234	0.3572	0.2974	0.059
Mof_H 	H 	0.1948	0.3096	0.292	-0.012
Mof_C 	C 	0.2097	0.4143	0.4223	-0.134
Mof_H 	H 	0.1718	0.4068	0.4987	0.074
Mof_C 	C 	0.1125	0.7062	0.2494	0.076
Mof_H 	H 	0.1372	0.6586	0.2234	-0.021
Mof_C 	C 	0.063	0.7041	0.3831	-0.146
Mof_H 	H 	0.0552	0.6559	0.4449	0.071
Mof_C 	C 	0.0254	0.7737	0.424	0.058
Mof_C 	C 	0.0398	0.8397	0.329	-0.161
Mof_H 	H 	0.0158	0.8882	0.3515	0.079
Mof_C 	C 	0.0903	0.8375	0.1963	0.099
Mof_H 	H 	0.0985	0.8852	0.1329	-0.028
Mof_C 	C 	0.3354	0.7223	0.3339	0.085
Mof_H 	H 	0.297	0.6857	0.3534	-0.02
Mof_C 	C 	0.4038	0.7196	0.4571	-0.15
Mof_H 	H 	0.4106	0.6823	0.5557	0.078
Mof_C 	C 	0.4623	0.7727	0.434	0.054
Mof_C 	C 	0.447	0.8271	0.2817	-0.142
Mof_H 	H 	0.4844	0.8644	0.2597	0.076
Mof_C 	C 	0.3778	0.8253	0.1672	0.07
Mof_H 	H 	0.3692	0.862	0.0673	-0.011
Mof_Cu	Cu	0.71496	0.27292	0.00664	0.851
Mof_N 	N 	0.7219	0.1658	0.8518	-0.249
Mof_N 	N 	0.7779	0.8653	0.1754	-0.239
Mof_N 	N 	0.6262	0.2732	0.1563	-0.253
Mof_N 	N 	0.82	0.2727	0.1899	-0.238
Mof_C 	C 	0.6668	0.1412	0.7327	0.11
Mof_H 	H 	0.6181	0.1627	0.7381	-0.033
Mof_C 	C 	0.6728	0.084	0.5924	-0.163
Mof_H 	H 	0.6291	0.0694	0.5073	0.076
Mof_C 	C 	0.743	0.0489	0.5791	0.058
Mof_C 	C 	0.8017	0.0745	0.7125	-0.158
Mof_H 	H 	0.8509	0.0529	0.7151	0.073
Mof_C 	C 	0.7897	0.1316	0.8432	0.086
Mof_H 	H 	0.8319	0.1474	0.9317	-0.02
Mof_C 	C 	0.7548	0.9866	0.4349	0.049
Mof_C 	C 	0.8088	0.9937	0.3194	-0.123
Mof_H 	H 	0.8391	0.0401	0.3247	0.059
Mof_C 	C 	0.819	0.9337	0.1961	0.074
Mof_H 	H 	0.8573	0.9408	0.1207	-0.014
Mof_C 	C 	0.7234	0.8572	0.2974	0.059
Mof_H 	H 	0.6948	0.8096	0.292	-0.012
Mof_C 	C 	0.7097	0.9143	0.4223	-0.134
Mof_H 	H 	0.6718	0.9068	0.4987	0.076
Mof_C 	C 	0.6125	0.2062	0.2494	0.076
Mof_H 	H 	0.6372	0.1586	0.2234	-0.022
Mof_C 	C 	0.563	0.2041	0.3831	-0.146
Mof_H 	H 	0.5552	0.1559	0.4449	0.07
Mof_C 	C 	0.5254	0.2737	0.424	0.058
Mof_C 	C 	0.5398	0.3397	0.329	-0.161
Mof_H 	H 	0.5158	0.3882	0.3515	0.077
Mof_C 	C 	0.5903	0.3375	0.1963	0.099
Mof_H 	H 	0.5985	0.3852	0.1329	-0.029
Mof_C 	C 	0.8354	0.2223	0.3339	0.084
Mof_H 	H 	0.797	0.1857	0.3534	-0.02
Mof_C 	C 	0.9038	0.2196	0.4571	-0.15
Mof_H 	H 	0.9106	0.1823	0.5557	0.077
Mof_C 	C 	0.9623	0.2727	0.434	0.053
Mof_C 	C 	0.947	0.3271	0.2817	-0.142
Mof_H 	H 	0.9844	0.3644	0.2597	0.074
Mof_C 	C 	0.8778	0.3253	0.1672	0.069
Mof_H 	H 	0.8692	0.362	0.0673	-0.012
_end
