data_functionalizedCrystal
_audit_creation_method	'EQeq! by Chris Wilmer'
_symmetry_space_group_name_H-M	'P1'
_symmetry_Int_Tables_number	1
_symmetry_cell_setting	triclinic
loop_
_symmetry_equiv_pos_as_xyz
  x,y,z
_cell_length_a	6.6295
_cell_length_b	16.7579
_cell_length_c	12.7936
_cell_angle_alpha	90
_cell_angle_beta	90
_cell_angle_gamma	90
loop_
_atom_site_label
_atom_site_type_symbol
_atom_site_fract_x
_atom_site_fract_y
_atom_site_fract_z
_atom_site_charge
Mof_O 	O 	0.16677	0.1677	0.84362	-1.442
Mof_C 	C 	0.8078	0.03544	0.9679	0.033
Mof_O 	O 	0.66677	0.6677	0.34362	-1.435
Mof_C 	C 	0.3078	0.53544	0.4679	0.069
Mof_O 	O 	0.83323	0.3323	0.84362	-1.46
Mof_C 	C 	0.1922	0.46456	0.9679	0.058
Mof_O 	O 	0.33323	0.8323	0.34362	-1.434
Mof_C 	C 	0.6922	0.96456	0.4679	0.051
Mof_O 	O 	0.83323	0.6677	0.15638	-1.46
Mof_C 	C 	0.1922	0.53544	0.0321	0.058
Mof_O 	O 	0.33323	0.1677	0.65638	-1.434
Mof_C 	C 	0.6922	0.03544	0.5321	0.051
Mof_O 	O 	0.16677	0.8323	0.15638	-1.443
Mof_C 	C 	0.8078	0.96456	0.0321	0.032
Mof_O 	O 	0.66677	0.3323	0.65638	-1.435
Mof_C 	C 	0.3078	0.46456	0.5321	0.069
Mof_O 	O 	0.83323	0.8323	0.15638	-1.46
Mof_C 	C 	0.1922	0.96456	0.0321	0.058
Mof_O 	O 	0.33323	0.3323	0.65638	-1.434
Mof_C 	C 	0.6922	0.46456	0.5321	0.051
Mof_O 	O 	0.16677	0.6677	0.15638	-1.443
Mof_C 	C 	0.8078	0.53544	0.0321	0.032
Mof_O 	O 	0.66677	0.1677	0.65638	-1.435
Mof_C 	C 	0.3078	0.03544	0.5321	0.069
Mof_O 	O 	0.16677	0.3323	0.84362	-1.443
Mof_C 	C 	0.8078	0.46456	0.9679	0.032
Mof_O 	O 	0.66677	0.8323	0.34362	-1.435
Mof_C 	C 	0.3078	0.96456	0.4679	0.069
Mof_O 	O 	0.83323	0.1677	0.84362	-1.46
Mof_C 	C 	0.1922	0.03544	0.9679	0.058
Mof_O 	O 	0.33323	0.6677	0.34362	-1.434
Mof_C 	C 	0.6922	0.53544	0.4679	0.051
Mof_Al	Al	0.25	0.25	0.75	6.001
Mof_Al	Al	0.75	0.25	0.75	5.929
Mof_Al	Al	0.75	0.75	0.25	5.929
Mof_Al	Al	0.25	0.75	0.25	6.001
Mof_O 	O 	-1.28064e-32	0.25	0.6847	-2.084
Mof_O 	O 	0.5	0.75	0.1847	-2.106
Mof_O 	O 	-6.59891e-33	0.75	0.3153	-2.084
Mof_O 	O 	0.5	0.25	0.8153	-2.106
Mof_C 	C 	6.83618e-33	0.062	0.9448	-0.23
Mof_C 	C 	6.29713e-33	0.1382	0.8703	1.111
Mof_C 	C 	0.5	0.562	0.4448	-0.262
Mof_C 	C 	0.5	0.6382	0.3703	1.073
Mof_C 	C 	-1.09244e-32	0.438	0.9448	-0.23
Mof_C 	C 	2.40577e-32	0.3618	0.8703	1.111
Mof_C 	C 	0.5	0.938	0.4448	-0.262
Mof_C 	C 	0.5	0.8618	0.3703	1.072
Mof_C 	C 	-1.1811e-32	0.562	0.0552	-0.23
Mof_C 	C 	-3.50169e-33	0.6382	0.1297	1.111
Mof_C 	C 	0.5	0.062	0.5552	-0.262
Mof_C 	C 	0.5	0.1382	0.6297	1.072
Mof_C 	C 	-1.1811e-32	0.938	0.0552	-0.23
Mof_C 	C 	-2.12623e-32	0.8618	0.1297	1.111
Mof_C 	C 	0.5	0.438	0.5552	-0.262
Mof_C 	C 	0.5	0.3618	0.6297	1.073
_end
