# CIF file generated by openbabel 3.1.0, see https://openbabel.org
data_I
_chemical_name_common 'OXAMIK_clean'
_cell_length_a 5.0696
_cell_length_b 9.6081
_cell_length_c 12.5328
_cell_angle_alpha 89.12
_cell_angle_beta 85.508
_cell_angle_gamma 76.862
_space_group_name_H-M_alt 'P 1'
_space_group_name_Hall 'P 1'
loop_
    _symmetry_equiv_pos_as_xyz
    x,y,z
loop_
    _atom_site_label
    _atom_site_type_symbol
    _atom_site_fract_x
    _atom_site_fract_y
    _atom_site_fract_z
    _atom_site_occupancy
    Co1      Co       0.83382    0.10633    0.59655    1.000
    Co2      Co       0.16618    0.89367    0.40345    1.000
    Co3      Co       0.50000    0.00000    0.00000    1.000
    P1       P        0.68380    0.78652    0.55723    1.000
    P2       P        0.37740    0.96745    0.74681    1.000
    P3       P        0.31620    0.21348    0.44277    1.000
    P4       P        0.62260    0.03255    0.25319    1.000
    H1       H        0.94580    0.62410    0.47960    1.000
    H2       H        0.92590    0.84960    0.73300    1.000
    H3       H        0.48100    0.43410    0.62460    1.000
    H4       H        0.15880    0.27970    0.75750    1.000
    H5       H        0.98170    0.52230    0.82690    1.000
    H6       H        0.32010    0.67190    0.71090    1.000
    H7       H        0.43570    0.68440    0.82160    1.000
    H8       H        0.05420    0.37590    0.52040    1.000
    H9       H        0.07410    0.15040    0.26700    1.000
    H10      H        0.51900    0.56590    0.37540    1.000
    H11      H        0.84120    0.72030    0.24250    1.000
    H12      H        0.01830    0.47770    0.17310    1.000
    H13      H        0.67990    0.32810    0.28910    1.000
    H14      H        0.56430    0.31560    0.17840    1.000
    C1       C        0.62910    0.42520    0.66560    1.000
    C2       C        0.99970    0.34140    0.73890    1.000
    C3       C        0.90380    0.47540    0.77780    1.000
    C4       C        0.48520    0.66990    0.74560    1.000
    C5       C        0.60580    0.79430    0.70280    1.000
    C6       C        0.37090    0.57480    0.33440    1.000
    C7       C        0.00030    0.65860    0.26110    1.000
    C8       C        0.09620    0.52460    0.22220    1.000
    C9       C        0.51480    0.33010    0.25440    1.000
    C10      C        0.39420    0.20570    0.29720    1.000
    N1       N        0.66710    0.52780    0.72950    1.000
    N2       N        0.82850    0.30930    0.66780    1.000
    N3       N        0.33290    0.47220    0.27050    1.000
    N4       N        0.17150    0.69070    0.33220    1.000
    O1       O        0.82770    0.90330    0.52360    1.000
    O2       O        0.43140    0.78010    0.50590    1.000
    O3       O        0.89670    0.63810    0.54320    1.000
    O4       O        0.53810    0.07890    0.71670    1.000
    O5       O        0.11430    0.98490    0.69370    1.000
    O6       O        0.32420    0.95620    0.86750    1.000
    O7       O        0.85380    0.78530    0.75490    1.000
    O8       O        0.17230    0.09670    0.47640    1.000
    O9       O        0.56860    0.21990    0.49410    1.000
    O10      O        0.10330    0.36190    0.45680    1.000
    O11      O        0.46190    0.92110    0.28330    1.000
    O12      O        0.88570    0.01510    0.30630    1.000
    O13      O        0.67580    0.04380    0.13250    1.000
    O14      O        0.14620    0.21470    0.24510    1.000
