# CIF file generated by openbabel 3.1.0, see https://openbabel.org
data_I
_chemical_name_common 'image0'
_cell_length_a 20.3856
_cell_length_b 13.8293
_cell_length_c 13.1563
_cell_angle_alpha 90
_cell_angle_beta 103.632
_cell_angle_gamma 90
_space_group_name_H-M_alt 'P 1'
_space_group_name_Hall 'P 1'
loop_
    _symmetry_equiv_pos_as_xyz
    x,y,z
loop_
    _atom_site_label
    _atom_site_type_symbol
    _atom_site_fract_x
    _atom_site_fract_y
    _atom_site_fract_z
    _atom_site_occupancy
    O1       O        0.23280    0.84130    0.84960    1.000
    O2       O        0.14890    0.80170    0.71420    1.000
    C1       C        0.19720    0.85320    0.75850    1.000
    N1       N        0.24480    0.10160    0.59090    1.000
    C2       C        0.21530    0.93880    0.69860    1.000
    C3       C        0.27950    0.08140    0.68850    1.000
    H1       H        0.31370    0.12330    0.72080    1.000
    C4       C        0.18000    0.95970    0.59850    1.000
    H2       H        0.14500    0.91960    0.56490    1.000
    N2       N        0.13400    0.26130    0.49650    1.000
    C5       C        0.26670    0.00180    0.74280    1.000
    H3       H        0.29280    0.99010    0.80980    1.000
    C6       C        0.78370    0.20470    0.59070    1.000
    H4       H        0.80620    0.17470    0.65230    1.000
    C7       C        0.08570    0.25040    0.40820    1.000
    H5       H        0.09890    0.24460    0.34540    1.000
    C8       C        0.78520    0.30300    0.44260    1.000
    H6       H        0.80890    0.33970    0.40390    1.000
    N3       N        0.92770    0.25330    0.49040    1.000
    H7       H        0.90250    0.24500    0.42870    1.000
    O3       O        0.92300    0.26830    0.66050    1.000
    C9       C        0.11260    0.27050    0.58490    1.000
    H8       H        0.14500    0.27940    0.64710    1.000
    C10      C        0.99690    0.25700    0.49750    1.000
    C11      C        0.04540    0.26740    0.58950    1.000
    H9       H        0.03330    0.27230    0.65320    1.000
    C12      C        0.81970    0.25720    0.53240    1.000
    C13      C        0.01860    0.24750    0.40550    1.000
    H10      H        0.98720    0.23920    0.34210    1.000
    C14      C        0.89490    0.26120    0.56950    1.000
    C15      C        0.19670    0.04070    0.54780    1.000
    H11      H        0.17250    0.05260    0.47970    1.000
    O4       O        0.26720    0.34130    0.65040    1.000
    O5       O        0.35110    0.30170    0.78580    1.000
    C16      C        0.30280    0.35320    0.74150    1.000
    N4       N        0.25520    0.60160    0.90910    1.000
    C17      C        0.28470    0.43880    0.80140    1.000
    C18      C        0.22050    0.58140    0.81150    1.000
    H12      H        0.18630    0.62330    0.77920    1.000
    C19      C        0.32000    0.45970    0.90150    1.000
    H13      H        0.35500    0.41960    0.93510    1.000
    N5       N        0.36600    0.76130    0.00350    1.000
    C20      C        0.23330    0.50180    0.75720    1.000
    H14      H        0.20720    0.49010    0.69020    1.000
    C21      C        0.71630    0.70470    0.90930    1.000
    H15      H        0.69380    0.67470    0.84770    1.000
    C22      C        0.41430    0.75040    0.09180    1.000
    H16      H        0.40110    0.74460    0.15460    1.000
    C23      C        0.71480    0.80300    0.05740    1.000
    H17      H        0.69110    0.83970    0.09610    1.000
    N6       N        0.57230    0.75330    0.00960    1.000
    H18      H        0.59750    0.74500    0.07130    1.000
    O6       O        0.57700    0.76830    0.83950    1.000
    C24      C        0.38740    0.77050    0.91510    1.000
    H19      H        0.35500    0.77940    0.85290    1.000
    C25      C        0.50310    0.75700    0.00250    1.000
    C26      C        0.45460    0.76740    0.91050    1.000
    H20      H        0.46670    0.77230    0.84680    1.000
    C27      C        0.68030    0.75720    0.96760    1.000
    C28      C        0.48140    0.74750    0.09450    1.000
    H21      H        0.51280    0.73920    0.15790    1.000
    C29      C        0.60510    0.76120    0.93050    1.000
    C30      C        0.30330    0.54070    0.95220    1.000
    H22      H        0.32750    0.55260    0.02030    1.000
    O7       O        0.26720    0.65870    0.15040    1.000
    O8       O        0.35110    0.69830    0.28580    1.000
    C31      C        0.30280    0.64680    0.24150    1.000
    N7       N        0.25520    0.39840    0.40910    1.000
    C32      C        0.28470    0.56120    0.30140    1.000
    C33      C        0.22050    0.41860    0.31150    1.000
    H23      H        0.18630    0.37670    0.27920    1.000
    C34      C        0.32000    0.54030    0.40150    1.000
    H24      H        0.35500    0.58040    0.43510    1.000
    N8       N        0.36600    0.23870    0.50350    1.000
    C35      C        0.23330    0.49820    0.25720    1.000
    H25      H        0.20720    0.50990    0.19020    1.000
    C36      C        0.71630    0.29530    0.40930    1.000
    H26      H        0.69380    0.32530    0.34770    1.000
    C37      C        0.41430    0.24960    0.59180    1.000
    H27      H        0.40110    0.25540    0.65460    1.000
    C38      C        0.71480    0.19700    0.55740    1.000
    H28      H        0.69110    0.16030    0.59610    1.000
    N9       N        0.57230    0.24670    0.50960    1.000
    H29      H        0.59750    0.25500    0.57130    1.000
    O9       O        0.57700    0.23170    0.33950    1.000
    C39      C        0.38740    0.22950    0.41510    1.000
    H30      H        0.35500    0.22060    0.35290    1.000
    C40      C        0.50310    0.24300    0.50250    1.000
    C41      C        0.45460    0.23260    0.41050    1.000
    H31      H        0.46670    0.22770    0.34680    1.000
    C42      C        0.68030    0.24280    0.46760    1.000
    C43      C        0.48140    0.25250    0.59450    1.000
    H32      H        0.51280    0.26080    0.65790    1.000
    C44      C        0.60510    0.23880    0.43050    1.000
    C45      C        0.30330    0.45930    0.45220    1.000
    H33      H        0.32750    0.44740    0.52030    1.000
    O10      O        0.23280    0.15870    0.34960    1.000
    O11      O        0.14890    0.19830    0.21420    1.000
    C46      C        0.19720    0.14680    0.25850    1.000
    N10      N        0.24480    0.89840    0.09090    1.000
    C47      C        0.21530    0.06120    0.19860    1.000
    C48      C        0.27950    0.91860    0.18850    1.000
    H34      H        0.31370    0.87670    0.22080    1.000
    C49      C        0.18000    0.04030    0.09850    1.000
    H35      H        0.14500    0.08040    0.06490    1.000
    N11      N        0.13400    0.73870    0.99650    1.000
    C50      C        0.26670    0.99820    0.24280    1.000
    H36      H        0.29280    0.00990    0.30980    1.000
    C51      C        0.78370    0.79530    0.09070    1.000
    H37      H        0.80620    0.82530    0.15230    1.000
    C52      C        0.08570    0.74960    0.90820    1.000
    H38      H        0.09890    0.75540    0.84540    1.000
    C53      C        0.78520    0.69700    0.94260    1.000
    H39      H        0.80890    0.66030    0.90390    1.000
    N12      N        0.92770    0.74670    0.99040    1.000
    H40      H        0.90250    0.75500    0.92870    1.000
    O12      O        0.92300    0.73170    0.16050    1.000
    C54      C        0.11260    0.72950    0.08490    1.000
    H41      H        0.14500    0.72060    0.14710    1.000
    C55      C        0.99690    0.74300    0.99750    1.000
    C56      C        0.04540    0.73260    0.08950    1.000
    H42      H        0.03330    0.72770    0.15320    1.000
    C57      C        0.81970    0.74280    0.03240    1.000
    C58      C        0.01860    0.75250    0.90550    1.000
    H43      H        0.98720    0.76080    0.84210    1.000
    C59      C        0.89490    0.73880    0.06950    1.000
    C60      C        0.19670    0.95930    0.04780    1.000
    H44      H        0.17250    0.94740    0.97970    1.000
    Cd1      Cd       0.25000    0.25000    0.50000    1.000
    Cd2      Cd       0.25000    0.75000    0.00000    1.000
    O13      O        0.73280    0.34130    0.84960    1.000
    O14      O        0.64890    0.30170    0.71420    1.000
    C61      C        0.69720    0.35320    0.75850    1.000
    N13      N        0.74480    0.60160    0.59090    1.000
    C62      C        0.71530    0.43880    0.69860    1.000
    C63      C        0.77950    0.58140    0.68850    1.000
    H45      H        0.81370    0.62330    0.72080    1.000
    C64      C        0.68000    0.45970    0.59850    1.000
    H46      H        0.64500    0.41960    0.56490    1.000
    N14      N        0.63400    0.76130    0.49650    1.000
    C65      C        0.76670    0.50180    0.74280    1.000
    H47      H        0.79280    0.49010    0.80980    1.000
    C66      C        0.28370    0.70470    0.59070    1.000
    H48      H        0.30620    0.67470    0.65230    1.000
    C67      C        0.58570    0.75040    0.40820    1.000
    H49      H        0.59890    0.74460    0.34540    1.000
    C68      C        0.28520    0.80300    0.44260    1.000
    H50      H        0.30890    0.83970    0.40390    1.000
    N15      N        0.42770    0.75330    0.49040    1.000
    H51      H        0.40250    0.74500    0.42870    1.000
    O15      O        0.42300    0.76830    0.66050    1.000
    C69      C        0.61260    0.77050    0.58490    1.000
    H52      H        0.64500    0.77940    0.64710    1.000
    C70      C        0.49690    0.75700    0.49750    1.000
    C71      C        0.54540    0.76740    0.58950    1.000
    H53      H        0.53330    0.77230    0.65320    1.000
    C72      C        0.31970    0.75720    0.53240    1.000
    C73      C        0.51860    0.74750    0.40550    1.000
    H54      H        0.48720    0.73920    0.34210    1.000
    C74      C        0.39490    0.76120    0.56950    1.000
    C75      C        0.69670    0.54070    0.54780    1.000
    H55      H        0.67250    0.55260    0.47970    1.000
    O16      O        0.76720    0.84130    0.65040    1.000
    O17      O        0.85110    0.80170    0.78580    1.000
    C76      C        0.80280    0.85320    0.74150    1.000
    N16      N        0.75520    0.10160    0.90910    1.000
    C77      C        0.78470    0.93880    0.80140    1.000
    C78      C        0.72050    0.08140    0.81150    1.000
    H56      H        0.68630    0.12330    0.77920    1.000
    C79      C        0.82000    0.95970    0.90150    1.000
    H57      H        0.85500    0.91960    0.93510    1.000
    N17      N        0.86600    0.26130    0.00350    1.000
    C80      C        0.73330    0.00180    0.75720    1.000
    H58      H        0.70720    0.99010    0.69020    1.000
    C81      C        0.21630    0.20470    0.90930    1.000
    H59      H        0.19380    0.17470    0.84770    1.000
    C82      C        0.91430    0.25040    0.09180    1.000
    H60      H        0.90110    0.24460    0.15460    1.000
    C83      C        0.21480    0.30300    0.05740    1.000
    H61      H        0.19110    0.33970    0.09610    1.000
    N18      N        0.07230    0.25330    0.00960    1.000
    H62      H        0.09750    0.24500    0.07130    1.000
    O18      O        0.07700    0.26830    0.83950    1.000
    C84      C        0.88740    0.27050    0.91510    1.000
    H63      H        0.85500    0.27940    0.85290    1.000
    C85      C        0.00310    0.25700    0.00250    1.000
    C86      C        0.95460    0.26740    0.91050    1.000
    H64      H        0.96670    0.27230    0.84680    1.000
    C87      C        0.18030    0.25720    0.96760    1.000
    C88      C        0.98140    0.24750    0.09450    1.000
    H65      H        0.01280    0.23920    0.15790    1.000
    C89      C        0.10510    0.26120    0.93050    1.000
    C90      C        0.80330    0.04070    0.95220    1.000
    H66      H        0.82750    0.05260    0.02030    1.000
    O19      O        0.76720    0.15870    0.15040    1.000
    O20      O        0.85110    0.19830    0.28580    1.000
    C91      C        0.80280    0.14680    0.24150    1.000
    N19      N        0.75520    0.89840    0.40910    1.000
    C92      C        0.78470    0.06120    0.30140    1.000
    C93      C        0.72050    0.91860    0.31150    1.000
    H67      H        0.68630    0.87670    0.27920    1.000
    C94      C        0.82000    0.04030    0.40150    1.000
    H68      H        0.85500    0.08040    0.43510    1.000
    N20      N        0.86600    0.73870    0.50350    1.000
    C95      C        0.73330    0.99820    0.25720    1.000
    H69      H        0.70720    0.00990    0.19020    1.000
    C96      C        0.21630    0.79530    0.40930    1.000
    H70      H        0.19380    0.82530    0.34770    1.000
    C97      C        0.91430    0.74960    0.59180    1.000
    H71      H        0.90110    0.75540    0.65460    1.000
    C98      C        0.21480    0.69700    0.55740    1.000
    H72      H        0.19110    0.66030    0.59610    1.000
    N21      N        0.07230    0.74670    0.50960    1.000
    H73      H        0.09750    0.75500    0.57130    1.000
    O21      O        0.07700    0.73170    0.33950    1.000
    C99      C        0.88740    0.72950    0.41510    1.000
    H74      H        0.85500    0.72060    0.35290    1.000
    C100     C        0.00310    0.74300    0.50250    1.000
    C101     C        0.95460    0.73260    0.41050    1.000
    H75      H        0.96670    0.72770    0.34680    1.000
    C102     C        0.18030    0.74280    0.46760    1.000
    C103     C        0.98140    0.75250    0.59450    1.000
    H76      H        0.01280    0.76080    0.65790    1.000
    C104     C        0.10510    0.73880    0.43050    1.000
    C105     C        0.80330    0.95930    0.45220    1.000
    H77      H        0.82750    0.94740    0.52030    1.000
    O22      O        0.73280    0.65870    0.34960    1.000
    O23      O        0.64890    0.69830    0.21420    1.000
    C106     C        0.69720    0.64680    0.25850    1.000
    N22      N        0.74480    0.39840    0.09090    1.000
    C107     C        0.71530    0.56120    0.19860    1.000
    C108     C        0.77950    0.41860    0.18850    1.000
    H78      H        0.81370    0.37670    0.22080    1.000
    C109     C        0.68000    0.54030    0.09850    1.000
    H79      H        0.64500    0.58040    0.06490    1.000
    N23      N        0.63400    0.23870    0.99650    1.000
    C110     C        0.76670    0.49820    0.24280    1.000
    H80      H        0.79280    0.50990    0.30980    1.000
    C111     C        0.28370    0.29530    0.09070    1.000
    H81      H        0.30620    0.32530    0.15230    1.000
    C112     C        0.58570    0.24960    0.90820    1.000
    H82      H        0.59890    0.25540    0.84540    1.000
    C113     C        0.28520    0.19700    0.94260    1.000
    H83      H        0.30890    0.16030    0.90390    1.000
    N24      N        0.42770    0.24670    0.99040    1.000
    H84      H        0.40250    0.25500    0.92870    1.000
    O24      O        0.42300    0.23170    0.16050    1.000
    C114     C        0.61260    0.22950    0.08490    1.000
    H85      H        0.64500    0.22060    0.14710    1.000
    C115     C        0.49690    0.24300    0.99750    1.000
    C116     C        0.54540    0.23260    0.08950    1.000
    H86      H        0.53330    0.22770    0.15320    1.000
    C117     C        0.31970    0.24280    0.03240    1.000
    C118     C        0.51860    0.25250    0.90550    1.000
    H87      H        0.48720    0.26080    0.84210    1.000
    C119     C        0.39490    0.23880    0.06950    1.000
    C120     C        0.69670    0.45930    0.04780    1.000
    H88      H        0.67250    0.44740    0.97970    1.000
    Cd3      Cd       0.75000    0.25000    0.00000    1.000
    Cd4      Cd       0.75000    0.75000    0.50000    1.000
