data_functionalizedCrystal
_audit_creation_method	'EQeq! by Chris Wilmer'
_symmetry_space_group_name_H-M	'P1'
_symmetry_Int_Tables_number	1
_symmetry_cell_setting	triclinic
loop_
_symmetry_equiv_pos_as_xyz
  x,y,z
_cell_length_a	7.877
_cell_length_b	15.693
_cell_length_c	11.2
_cell_angle_alpha	90
_cell_angle_beta	91.77
_cell_angle_gamma	90
loop_
_atom_site_label
_atom_site_type_symbol
_atom_site_fract_x
_atom_site_fract_y
_atom_site_fract_z
_atom_site_charge
Mof_C 	C 	0.6017	0.24175	0.1993	-0.217
Mof_C 	C 	0.7579	0.15132	0.3694	-0.241
Mof_C 	C 	0.552	0.0757	0.2055	-0.233
Mof_C 	C 	0.742	0.14054	0.0304	-0.208
Mof_C 	C 	0.9404	0.2192	0.1978	-0.22
Mof_C 	C 	0.603	0.55035	0.2991	-0.236
Mof_Co	Co	0.74849	0.14579	0.19996	1.162
Mof_N 	N 	0.5083	0.2975	0.2042	-0.153
Mof_N 	N 	0.7621	0.15672	0.4714	-0.158
Mof_N 	N 	0.0574	0.26242	0.1972	-0.151
Mof_N 	N 	0.744	0.13645	0.9285	-0.146
Mof_N 	N 	0.4288	0.03646	0.2117	-0.153
Mof_N 	N 	0.5087	0.49461	0.3029	-0.143
Mof_Sr	Sr	0.24904	0.40452	0.19587	1.095
Mof_C 	C 	0.8983	0.74175	0.3007	-0.216
Mof_C 	C 	0.7421	0.65132	0.1306	-0.241
Mof_C 	C 	0.948	0.5757	0.2945	-0.231
Mof_C 	C 	0.758	0.64054	0.4696	-0.21
Mof_C 	C 	0.5596	0.7192	0.3022	-0.221
Mof_C 	C 	0.897	0.05035	0.2009	-0.237
Mof_Co	Co	0.75151	0.64579	0.30004	1.162
Mof_N 	N 	0.9917	0.7975	0.2958	-0.152
Mof_N 	N 	0.7379	0.65672	0.0286	-0.157
Mof_N 	N 	0.4426	0.76242	0.3028	-0.15
Mof_N 	N 	0.756	0.63645	0.5715	-0.143
Mof_N 	N 	0.0712	0.53646	0.2883	-0.155
Mof_N 	N 	0.9913	0.99461	0.1971	-0.14
Mof_Sr	Sr	0.25096	0.90452	0.30413	1.093
Mof_C 	C 	0.3983	0.75825	0.8007	-0.217
Mof_C 	C 	0.2421	0.84868	0.6306	-0.241
Mof_C 	C 	0.448	0.9243	0.7945	-0.233
Mof_C 	C 	0.258	0.85946	0.9696	-0.208
Mof_C 	C 	0.0596	0.7808	0.8022	-0.22
Mof_C 	C 	0.397	0.44965	0.7009	-0.236
Mof_Co	Co	0.25151	0.85421	0.80004	1.162
Mof_N 	N 	0.4917	0.7025	0.7958	-0.153
Mof_N 	N 	0.2379	0.84328	0.5286	-0.158
Mof_N 	N 	0.9426	0.73758	0.8028	-0.151
Mof_N 	N 	0.256	0.86355	0.0715	-0.146
Mof_N 	N 	0.5712	0.96354	0.7883	-0.153
Mof_N 	N 	0.4913	0.50539	0.6971	-0.143
Mof_Sr	Sr	0.75096	0.59548	0.80413	1.095
Mof_C 	C 	0.1017	0.25825	0.6993	-0.216
Mof_C 	C 	0.2579	0.34868	0.8694	-0.241
Mof_C 	C 	0.052	0.4243	0.7055	-0.231
Mof_C 	C 	0.242	0.35946	0.5304	-0.21
Mof_C 	C 	0.4404	0.2808	0.6978	-0.221
Mof_C 	C 	0.103	0.94965	0.7991	-0.237
Mof_Co	Co	0.24849	0.35421	0.69996	1.162
Mof_N 	N 	0.0083	0.2025	0.7042	-0.152
Mof_N 	N 	0.2621	0.34328	0.9714	-0.157
Mof_N 	N 	0.5574	0.23758	0.6972	-0.15
Mof_N 	N 	0.244	0.36355	0.4285	-0.143
Mof_N 	N 	0.9288	0.46354	0.7117	-0.155
Mof_N 	N 	0.0087	0.00539	0.8029	-0.14
Mof_Sr	Sr	0.74904	0.09548	0.69587	1.093
_end
