data_functionalizedCrystal
_audit_creation_method	'EQeq! by Chris Wilmer'
_symmetry_space_group_name_H-M	'P1'
_symmetry_Int_Tables_number	1
_symmetry_cell_setting	triclinic
loop_
_symmetry_equiv_pos_as_xyz
  x,y,z
_cell_length_a	7.113
_cell_length_b	9.959
_cell_length_c	9.959
_cell_angle_alpha	90
_cell_angle_beta	90
_cell_angle_gamma	90
loop_
_atom_site_label
_atom_site_type_symbol
_atom_site_fract_x
_atom_site_fract_y
_atom_site_fract_z
_atom_site_charge
Mof_V 	V 	0.5	0.6091	0.8909	1.798
Mof_V 	V 	0.5	0.3909	0.1091	1.798
Mof_V 	V 	0.5	0.1091	0.6091	1.798
Mof_V 	V 	0.5	0.8909	0.3909	1.798
Mof_H 	H 	0.5	0.3563	0.8563	0.435
Mof_H 	H 	0.5	0.6437	0.1437	0.435
Mof_H 	H 	0.5	0.1437	0.3563	0.435
Mof_H 	H 	0.5	0.8563	0.6437	0.435
Mof_C 	C 	0.5	0.4422	0.4144	0.094
Mof_C 	C 	0.5	0.5578	0.5856	0.094
Mof_C 	C 	0.5	0.5856	0.4422	0.094
Mof_C 	C 	0.5	0.4144	0.5578	0.094
Mof_C 	C 	0.5	0.0578	0.9144	0.094
Mof_C 	C 	0.5	0.9422	0.0856	0.094
Mof_C 	C 	0.5	0.9144	0.9422	0.094
Mof_C 	C 	0.5	0.0856	0.0578	0.094
Mof_C 	C 	0.101	0.5516	0.9484	0.089
Mof_C 	C 	0.101	0.4484	0.0516	0.089
Mof_C 	C 	0.101	0.0516	0.5516	0.089
Mof_C 	C 	0.101	0.9484	0.4484	0.089
Mof_C 	C 	0.899	0.9484	0.4484	0.089
Mof_C 	C 	0.899	0.0516	0.5516	0.089
Mof_C 	C 	0.899	0.4484	0.0516	0.089
Mof_C 	C 	0.899	0.5516	0.9484	0.089
Mof_O 	O 	0.5	0.6299	0.6879	-0.42
Mof_O 	O 	0.5	0.3701	0.3121	-0.42
Mof_O 	O 	0.5	0.3121	0.6299	-0.42
Mof_O 	O 	0.5	0.6879	0.3701	-0.42
Mof_O 	O 	0.5	0.8701	0.1879	-0.42
Mof_O 	O 	0.5	0.1299	0.8121	-0.42
Mof_O 	O 	0.5	0.1879	0.1299	-0.42
Mof_O 	O 	0.5	0.8121	0.8701	-0.42
Mof_O 	O 	0.2203	0.6175	0.8825	-0.402
Mof_O 	O 	0.2203	0.3825	0.1175	-0.402
Mof_O 	O 	0.2203	0.1175	0.6175	-0.402
Mof_O 	O 	0.2203	0.8825	0.3825	-0.402
Mof_O 	O 	0.7797	0.8825	0.3825	-0.402
Mof_O 	O 	0.7797	0.1175	0.6175	-0.402
Mof_O 	O 	0.7797	0.3825	0.1175	-0.402
Mof_O 	O 	0.7797	0.6175	0.8825	-0.402
Mof_O 	O 	0.5	0.5862	0.0862	-0.955
Mof_O 	O 	0.5	0.4138	0.9138	-0.955
Mof_O 	O 	0.5	0.9138	0.5862	-0.955
Mof_O 	O 	0.5	0.0862	0.4138	-0.955
_end
