data_functionalizedCrystal
_audit_creation_method	'EQeq! by Chris Wilmer'
_symmetry_space_group_name_H-M	'P1'
_symmetry_Int_Tables_number	1
_symmetry_cell_setting	triclinic
loop_
_symmetry_equiv_pos_as_xyz
  x,y,z
_cell_length_a	25.128
_cell_length_b	26.704
_cell_length_c	14.85
_cell_angle_alpha	90
_cell_angle_beta	90
_cell_angle_gamma	90
loop_
_atom_site_label
_atom_site_type_symbol
_atom_site_fract_x
_atom_site_fract_y
_atom_site_fract_z
_atom_site_charge
Mof_Eu	Eu	0.89933	0.68422	0.64956	2.24
Mof_Cl	Cl	0.0805	0.81314	0.71935	-0.227
Mof_Cl	Cl	0.15804	0.86565	0.5903	-0.189
Mof_Cl	Cl	0.00129	0.8734	0.33887	-0.203
Mof_Cl	Cl	0.92405	0.82728	0.47616	-0.237
Mof_Cl	Cl	0.04173	0.06711	0.3811	-0.214
Mof_Cl	Cl	0.07766	0.97872	0.49988	-0.174
Mof_Cl	Cl	0.13288	0.8774	0.1974	-0.194
Mof_Cl	Cl	0.11071	0.9733	0.08558	-0.228
Mof_Cl	Cl	0.21603	0.95034	0.4144	-0.174
Mof_Cl	Cl	0.32363	0.89815	0.3847	-0.222
Mof_Cl	Cl	0.22308	0.721	0.35534	-0.255
Mof_Cl	Cl	0.1156	0.77286	0.37091	-0.195
Mof_O 	O 	0.9541	0.75408	0.6393	-0.6
Mof_O 	O 	0.9549	0.82342	0.7223	-0.518
Mof_O 	O 	0.0181	0.0608	0.1491	-0.242
Mof_O 	O 	0.0956	0.09604	0.1804	-0.488
Mof_O 	O 	0.342	0.8043	0.2719	-0.559
Mof_O 	O 	0.3374	0.7525	0.3914	-0.493
Mof_C 	C 	0.9682	0.7969	0.656	0.625
Mof_C 	C 	0.0623	0.0613	0.1832	0.479
Mof_C 	C 	0.3211	0.788	0.342	0.58
Mof_C 	C 	0.0073	0.8213	0.59	-0.2
Mof_C 	C 	0.0593	0.8305	0.6131	0.214
Mof_C 	C 	0.0942	0.8525	0.5522	0.116
Mof_C 	C 	0.0781	0.8664	0.4667	-0.013
Mof_C 	C 	0.0247	0.8584	0.4449	0.125
Mof_C 	C 	0.9907	0.836	0.5048	0.207
Mof_C 	C 	0.1171	0.8858	0.4013	0.131
Mof_C 	C 	0.0779	0.0158	0.2397	-0.146
Mof_C 	C 	0.0698	0.0149	0.3313	0.197
Mof_C 	C 	0.0843	0.9742	0.3859	0.136
Mof_C 	C 	0.104	0.9307	0.345	-0.016
Mof_C 	C 	0.1117	0.9314	0.2522	0.12
Mof_C 	C 	0.1	0.9729	0.2023	0.184
Mof_C 	C 	0.1687	0.8605	0.3899	-0.009
Mof_C 	C 	0.2169	0.8868	0.391	0.111
Mof_C 	C 	0.2657	0.8637	0.379	0.208
Mof_C 	C 	0.2693	0.8125	0.367	-0.2
Mof_C 	C 	0.2218	0.7852	0.3702	0.209
Mof_C 	C 	0.1727	0.8081	0.3794	0.122
Mof_Eu	Eu	0.60067	0.31578	0.64956	2.239
Mof_Cl	Cl	0.4195	0.18686	0.71935	-0.228
Mof_Cl	Cl	0.34196	0.13435	0.5903	-0.19
Mof_Cl	Cl	0.49871	0.1266	0.33887	-0.204
Mof_Cl	Cl	0.57595	0.17272	0.47616	-0.238
Mof_Cl	Cl	0.45827	0.93289	0.3811	-0.214
Mof_Cl	Cl	0.42234	0.02128	0.49988	-0.176
Mof_Cl	Cl	0.36712	0.1226	0.1974	-0.195
Mof_Cl	Cl	0.38929	0.0267	0.08558	-0.229
Mof_Cl	Cl	0.28397	0.04966	0.4144	-0.175
Mof_Cl	Cl	0.17637	0.10185	0.3847	-0.222
Mof_Cl	Cl	0.27692	0.279	0.35534	-0.255
Mof_Cl	Cl	0.3844	0.22714	0.37091	-0.195
Mof_O 	O 	0.5459	0.24592	0.6393	-0.601
Mof_O 	O 	0.5451	0.17658	0.7223	-0.518
Mof_O 	O 	0.4819	0.9392	0.1491	-0.241
Mof_O 	O 	0.4044	0.90396	0.1804	-0.488
Mof_O 	O 	0.158	0.1957	0.2719	-0.558
Mof_O 	O 	0.1626	0.2475	0.3914	-0.493
Mof_C 	C 	0.5318	0.2031	0.656	0.626
Mof_C 	C 	0.4377	0.9387	0.1832	0.479
Mof_C 	C 	0.1789	0.212	0.342	0.58
Mof_C 	C 	0.4927	0.1787	0.59	-0.202
Mof_C 	C 	0.4407	0.1695	0.6131	0.215
Mof_C 	C 	0.4058	0.1475	0.5522	0.116
Mof_C 	C 	0.4219	0.1336	0.4667	-0.012
Mof_C 	C 	0.4753	0.1416	0.4449	0.124
Mof_C 	C 	0.5093	0.164	0.5048	0.208
Mof_C 	C 	0.3829	0.1142	0.4013	0.13
Mof_C 	C 	0.4221	0.9842	0.2397	-0.145
Mof_C 	C 	0.4302	0.9851	0.3313	0.198
Mof_C 	C 	0.4157	0.0258	0.3859	0.136
Mof_C 	C 	0.396	0.0693	0.345	-0.016
Mof_C 	C 	0.3883	0.0686	0.2522	0.12
Mof_C 	C 	0.4	0.0271	0.2023	0.183
Mof_C 	C 	0.3313	0.1395	0.3899	-0.009
Mof_C 	C 	0.2831	0.1132	0.391	0.111
Mof_C 	C 	0.2343	0.1363	0.379	0.208
Mof_C 	C 	0.2307	0.1875	0.367	-0.2
Mof_C 	C 	0.2782	0.2148	0.3702	0.209
Mof_C 	C 	0.3273	0.1919	0.3794	0.122
Mof_Eu	Eu	0.60067	0.18422	0.85044	2.239
Mof_Cl	Cl	0.4195	0.31314	0.78065	-0.228
Mof_Cl	Cl	0.34196	0.36565	0.9097	-0.19
Mof_Cl	Cl	0.49871	0.3734	0.16113	-0.204
Mof_Cl	Cl	0.57595	0.32728	0.02384	-0.238
Mof_Cl	Cl	0.45827	0.56711	0.1189	-0.214
Mof_Cl	Cl	0.42234	0.47872	0.00012	-0.176
Mof_Cl	Cl	0.36712	0.3774	0.3026	-0.195
Mof_Cl	Cl	0.38929	0.4733	0.41442	-0.229
Mof_Cl	Cl	0.28397	0.45034	0.0856	-0.175
Mof_Cl	Cl	0.17637	0.39815	0.1153	-0.222
Mof_Cl	Cl	0.27692	0.221	0.14466	-0.255
Mof_Cl	Cl	0.3844	0.27286	0.12909	-0.195
Mof_O 	O 	0.5459	0.25408	0.8607	-0.601
Mof_O 	O 	0.5451	0.32342	0.7777	-0.518
Mof_O 	O 	0.4819	0.5608	0.3509	-0.241
Mof_O 	O 	0.4044	0.59604	0.3196	-0.488
Mof_O 	O 	0.158	0.3043	0.2281	-0.559
Mof_O 	O 	0.1626	0.2525	0.1086	-0.493
Mof_C 	C 	0.5318	0.2969	0.844	0.626
Mof_C 	C 	0.4377	0.5613	0.3168	0.479
Mof_C 	C 	0.1789	0.288	0.158	0.58
Mof_C 	C 	0.4927	0.3213	0.91	-0.202
Mof_C 	C 	0.4407	0.3305	0.8869	0.215
Mof_C 	C 	0.4058	0.3525	0.9478	0.116
Mof_C 	C 	0.4219	0.3664	0.0333	-0.013
Mof_C 	C 	0.4753	0.3584	0.0551	0.124
Mof_C 	C 	0.5093	0.336	0.9952	0.208
Mof_C 	C 	0.3829	0.3858	0.0987	0.13
Mof_C 	C 	0.4221	0.5158	0.2603	-0.145
Mof_C 	C 	0.4302	0.5149	0.1687	0.198
Mof_C 	C 	0.4157	0.4742	0.1141	0.136
Mof_C 	C 	0.396	0.4307	0.155	-0.016
Mof_C 	C 	0.3883	0.4314	0.2478	0.12
Mof_C 	C 	0.4	0.4729	0.2977	0.183
Mof_C 	C 	0.3313	0.3605	0.1101	-0.009
Mof_C 	C 	0.2831	0.3868	0.109	0.111
Mof_C 	C 	0.2343	0.3637	0.121	0.208
Mof_C 	C 	0.2307	0.3125	0.133	-0.2
Mof_C 	C 	0.2782	0.2852	0.1298	0.209
Mof_C 	C 	0.3273	0.3081	0.1206	0.122
Mof_Eu	Eu	0.89933	0.81578	0.85044	2.238
Mof_Cl	Cl	0.0805	0.68686	0.78065	-0.227
Mof_Cl	Cl	0.15804	0.63435	0.9097	-0.19
Mof_Cl	Cl	0.00129	0.6266	0.16113	-0.204
Mof_Cl	Cl	0.92405	0.67272	0.02384	-0.236
Mof_Cl	Cl	0.04173	0.43289	0.1189	-0.215
Mof_Cl	Cl	0.07766	0.52128	0.00012	-0.176
Mof_Cl	Cl	0.13288	0.6226	0.3026	-0.195
Mof_Cl	Cl	0.11071	0.5267	0.41442	-0.229
Mof_Cl	Cl	0.21603	0.54966	0.0856	-0.175
Mof_Cl	Cl	0.32363	0.60185	0.1153	-0.222
Mof_Cl	Cl	0.22308	0.779	0.14466	-0.255
Mof_Cl	Cl	0.1156	0.72714	0.12909	-0.196
Mof_O 	O 	0.9541	0.74592	0.8607	-0.6
Mof_O 	O 	0.9549	0.67658	0.7777	-0.518
Mof_O 	O 	0.0181	0.4392	0.3509	-0.241
Mof_O 	O 	0.0956	0.40396	0.3196	-0.488
Mof_O 	O 	0.342	0.6957	0.2281	-0.559
Mof_O 	O 	0.3374	0.7475	0.1086	-0.493
Mof_C 	C 	0.9682	0.7031	0.844	0.623
Mof_C 	C 	0.0623	0.4387	0.3168	0.479
Mof_C 	C 	0.3211	0.712	0.158	0.58
Mof_C 	C 	0.0073	0.6787	0.91	-0.197
Mof_C 	C 	0.0593	0.6695	0.8869	0.213
Mof_C 	C 	0.0942	0.6475	0.9478	0.118
Mof_C 	C 	0.0781	0.6336	0.0333	-0.014
Mof_C 	C 	0.0247	0.6416	0.0551	0.126
Mof_C 	C 	0.9907	0.664	0.9952	0.204
Mof_C 	C 	0.1171	0.6142	0.0987	0.131
Mof_C 	C 	0.0779	0.4842	0.2603	-0.145
Mof_C 	C 	0.0698	0.4851	0.1687	0.198
Mof_C 	C 	0.0843	0.5258	0.1141	0.136
Mof_C 	C 	0.104	0.5693	0.155	-0.016
Mof_C 	C 	0.1117	0.5686	0.2478	0.12
Mof_C 	C 	0.1	0.5271	0.2977	0.183
Mof_C 	C 	0.1687	0.6395	0.1101	-0.01
Mof_C 	C 	0.2169	0.6132	0.109	0.112
Mof_C 	C 	0.2657	0.6363	0.121	0.208
Mof_C 	C 	0.2693	0.6875	0.133	-0.2
Mof_C 	C 	0.2218	0.7148	0.1298	0.209
Mof_C 	C 	0.1727	0.6919	0.1206	0.122
Mof_Eu	Eu	0.10067	0.31578	0.35044	2.239
Mof_Cl	Cl	0.9195	0.18686	0.28065	-0.228
Mof_Cl	Cl	0.84196	0.13435	0.4097	-0.19
Mof_Cl	Cl	0.99871	0.1266	0.66113	-0.204
Mof_Cl	Cl	0.07595	0.17272	0.52384	-0.238
Mof_Cl	Cl	0.95827	0.93289	0.6189	-0.215
Mof_Cl	Cl	0.92234	0.02128	0.50012	-0.175
Mof_Cl	Cl	0.86712	0.1226	0.8026	-0.195
Mof_Cl	Cl	0.88929	0.0267	0.91442	-0.229
Mof_Cl	Cl	0.78397	0.04966	0.5856	-0.175
Mof_Cl	Cl	0.67637	0.10185	0.6153	-0.222
Mof_Cl	Cl	0.77692	0.279	0.64466	-0.255
Mof_Cl	Cl	0.8844	0.22714	0.62909	-0.195
Mof_O 	O 	0.0459	0.24592	0.3607	-0.6
Mof_O 	O 	0.0451	0.17658	0.2777	-0.518
Mof_O 	O 	0.9819	0.9392	0.8509	-0.242
Mof_O 	O 	0.9044	0.90396	0.8196	-0.488
Mof_O 	O 	0.658	0.1957	0.7281	-0.559
Mof_O 	O 	0.6626	0.2475	0.6086	-0.493
Mof_C 	C 	0.0318	0.2031	0.344	0.625
Mof_C 	C 	0.9377	0.9387	0.8168	0.479
Mof_C 	C 	0.6789	0.212	0.658	0.58
Mof_C 	C 	0.9927	0.1787	0.41	-0.2
Mof_C 	C 	0.9407	0.1695	0.3869	0.214
Mof_C 	C 	0.9058	0.1475	0.4478	0.116
Mof_C 	C 	0.9219	0.1336	0.5333	-0.013
Mof_C 	C 	0.9753	0.1416	0.5551	0.125
Mof_C 	C 	0.0093	0.164	0.4952	0.207
Mof_C 	C 	0.8829	0.1142	0.5987	0.131
Mof_C 	C 	0.9221	0.9842	0.7603	-0.146
Mof_C 	C 	0.9302	0.9851	0.6687	0.197
Mof_C 	C 	0.9157	0.0258	0.6141	0.136
Mof_C 	C 	0.896	0.0693	0.655	-0.016
Mof_C 	C 	0.8883	0.0686	0.7478	0.12
Mof_C 	C 	0.9	0.0271	0.7977	0.184
Mof_C 	C 	0.8313	0.1395	0.6101	-0.009
Mof_C 	C 	0.7831	0.1132	0.609	0.111
Mof_C 	C 	0.7343	0.1363	0.621	0.208
Mof_C 	C 	0.7307	0.1875	0.633	-0.2
Mof_C 	C 	0.7782	0.2148	0.6298	0.209
Mof_C 	C 	0.8273	0.1919	0.6206	0.122
Mof_Eu	Eu	0.39933	0.68422	0.35044	2.239
Mof_Cl	Cl	0.5805	0.81314	0.28065	-0.228
Mof_Cl	Cl	0.65804	0.86565	0.4097	-0.19
Mof_Cl	Cl	0.50129	0.8734	0.66113	-0.204
Mof_Cl	Cl	0.42405	0.82728	0.52384	-0.238
Mof_Cl	Cl	0.54173	0.06711	0.6189	-0.214
Mof_Cl	Cl	0.57766	0.97872	0.50012	-0.176
Mof_Cl	Cl	0.63288	0.8774	0.8026	-0.195
Mof_Cl	Cl	0.61071	0.9733	0.91442	-0.229
Mof_Cl	Cl	0.71603	0.95034	0.5856	-0.175
Mof_Cl	Cl	0.82363	0.89815	0.6153	-0.222
Mof_Cl	Cl	0.72308	0.721	0.64466	-0.255
Mof_Cl	Cl	0.6156	0.77286	0.62909	-0.195
Mof_O 	O 	0.4541	0.75408	0.3607	-0.601
Mof_O 	O 	0.4549	0.82342	0.2777	-0.518
Mof_O 	O 	0.5181	0.0608	0.8509	-0.241
Mof_O 	O 	0.5956	0.09604	0.8196	-0.488
Mof_O 	O 	0.842	0.8043	0.7281	-0.558
Mof_O 	O 	0.8374	0.7525	0.6086	-0.493
Mof_C 	C 	0.4682	0.7969	0.344	0.626
Mof_C 	C 	0.5623	0.0613	0.8168	0.479
Mof_C 	C 	0.8211	0.788	0.658	0.58
Mof_C 	C 	0.5073	0.8213	0.41	-0.202
Mof_C 	C 	0.5593	0.8305	0.3869	0.215
Mof_C 	C 	0.5942	0.8525	0.4478	0.116
Mof_C 	C 	0.5781	0.8664	0.5333	-0.012
Mof_C 	C 	0.5247	0.8584	0.5551	0.124
Mof_C 	C 	0.4907	0.836	0.4952	0.208
Mof_C 	C 	0.6171	0.8858	0.5987	0.13
Mof_C 	C 	0.5779	0.0158	0.7603	-0.145
Mof_C 	C 	0.5698	0.0149	0.6687	0.198
Mof_C 	C 	0.5843	0.9742	0.6141	0.136
Mof_C 	C 	0.604	0.9307	0.655	-0.016
Mof_C 	C 	0.6117	0.9314	0.7478	0.12
Mof_C 	C 	0.6	0.9729	0.7977	0.183
Mof_C 	C 	0.6687	0.8605	0.6101	-0.009
Mof_C 	C 	0.7169	0.8868	0.609	0.111
Mof_C 	C 	0.7657	0.8637	0.621	0.208
Mof_C 	C 	0.7693	0.8125	0.633	-0.2
Mof_C 	C 	0.7218	0.7852	0.6298	0.209
Mof_C 	C 	0.6727	0.8081	0.6206	0.122
Mof_Eu	Eu	0.39933	0.81578	0.14956	2.239
Mof_Cl	Cl	0.5805	0.68686	0.21935	-0.228
Mof_Cl	Cl	0.65804	0.63435	0.0903	-0.19
Mof_Cl	Cl	0.50129	0.6266	0.83887	-0.204
Mof_Cl	Cl	0.42405	0.67272	0.97616	-0.238
Mof_Cl	Cl	0.54173	0.43289	0.8811	-0.214
Mof_Cl	Cl	0.57766	0.52128	0.99988	-0.176
Mof_Cl	Cl	0.63288	0.6226	0.6974	-0.195
Mof_Cl	Cl	0.61071	0.5267	0.58558	-0.229
Mof_Cl	Cl	0.71603	0.54966	0.9144	-0.175
Mof_Cl	Cl	0.82363	0.60185	0.8847	-0.222
Mof_Cl	Cl	0.72308	0.779	0.85534	-0.255
Mof_Cl	Cl	0.6156	0.72714	0.87091	-0.195
Mof_O 	O 	0.4541	0.74592	0.1393	-0.601
Mof_O 	O 	0.4549	0.67658	0.2223	-0.518
Mof_O 	O 	0.5181	0.4392	0.6491	-0.241
Mof_O 	O 	0.5956	0.40396	0.6804	-0.488
Mof_O 	O 	0.842	0.6957	0.7719	-0.559
Mof_O 	O 	0.8374	0.7475	0.8914	-0.493
Mof_C 	C 	0.4682	0.7031	0.156	0.626
Mof_C 	C 	0.5623	0.4387	0.6832	0.479
Mof_C 	C 	0.8211	0.712	0.842	0.58
Mof_C 	C 	0.5073	0.6787	0.09	-0.202
Mof_C 	C 	0.5593	0.6695	0.1131	0.215
Mof_C 	C 	0.5942	0.6475	0.0522	0.116
Mof_C 	C 	0.5781	0.6336	0.9667	-0.013
Mof_C 	C 	0.5247	0.6416	0.9449	0.124
Mof_C 	C 	0.4907	0.664	0.0048	0.208
Mof_C 	C 	0.6171	0.6142	0.9013	0.13
Mof_C 	C 	0.5779	0.4842	0.7397	-0.145
Mof_C 	C 	0.5698	0.4851	0.8313	0.198
Mof_C 	C 	0.5843	0.5258	0.8859	0.136
Mof_C 	C 	0.604	0.5693	0.845	-0.016
Mof_C 	C 	0.6117	0.5686	0.7522	0.12
Mof_C 	C 	0.6	0.5271	0.7023	0.183
Mof_C 	C 	0.6687	0.6395	0.8899	-0.009
Mof_C 	C 	0.7169	0.6132	0.891	0.111
Mof_C 	C 	0.7657	0.6363	0.879	0.208
Mof_C 	C 	0.7693	0.6875	0.867	-0.2
Mof_C 	C 	0.7218	0.7148	0.8702	0.209
Mof_C 	C 	0.6727	0.6919	0.8794	0.122
Mof_Eu	Eu	0.10067	0.18422	0.14956	2.238
Mof_Cl	Cl	0.9195	0.31314	0.21935	-0.227
Mof_Cl	Cl	0.84196	0.36565	0.0903	-0.19
Mof_Cl	Cl	0.99871	0.3734	0.83887	-0.204
Mof_Cl	Cl	0.07595	0.32728	0.97616	-0.236
Mof_Cl	Cl	0.95827	0.56711	0.8811	-0.215
Mof_Cl	Cl	0.92234	0.47872	0.99988	-0.176
Mof_Cl	Cl	0.86712	0.3774	0.6974	-0.195
Mof_Cl	Cl	0.88929	0.4733	0.58558	-0.229
Mof_Cl	Cl	0.78397	0.45034	0.9144	-0.175
Mof_Cl	Cl	0.67637	0.39815	0.8847	-0.222
Mof_Cl	Cl	0.77692	0.221	0.85534	-0.255
Mof_Cl	Cl	0.8844	0.27286	0.87091	-0.196
Mof_O 	O 	0.0459	0.25408	0.1393	-0.6
Mof_O 	O 	0.0451	0.32342	0.2223	-0.518
Mof_O 	O 	0.9819	0.5608	0.6491	-0.241
Mof_O 	O 	0.9044	0.59604	0.6804	-0.488
Mof_O 	O 	0.658	0.3043	0.7719	-0.559
Mof_O 	O 	0.6626	0.2525	0.8914	-0.493
Mof_C 	C 	0.0318	0.2969	0.156	0.623
Mof_C 	C 	0.9377	0.5613	0.6832	0.479
Mof_C 	C 	0.6789	0.288	0.842	0.58
Mof_C 	C 	0.9927	0.3213	0.09	-0.197
Mof_C 	C 	0.9407	0.3305	0.1131	0.213
Mof_C 	C 	0.9058	0.3525	0.0522	0.118
Mof_C 	C 	0.9219	0.3664	0.9667	-0.014
Mof_C 	C 	0.9753	0.3584	0.9449	0.126
Mof_C 	C 	0.0093	0.336	0.0048	0.204
Mof_C 	C 	0.8829	0.3858	0.9013	0.131
Mof_C 	C 	0.9221	0.5158	0.7397	-0.145
Mof_C 	C 	0.9302	0.5149	0.8313	0.198
Mof_C 	C 	0.9157	0.4742	0.8859	0.136
Mof_C 	C 	0.896	0.4307	0.845	-0.016
Mof_C 	C 	0.8883	0.4314	0.7522	0.12
Mof_C 	C 	0.9	0.4729	0.7023	0.183
Mof_C 	C 	0.8313	0.3605	0.8899	-0.01
Mof_C 	C 	0.7831	0.3868	0.891	0.112
Mof_C 	C 	0.7343	0.3637	0.879	0.208
Mof_C 	C 	0.7307	0.3125	0.867	-0.2
Mof_C 	C 	0.7782	0.2852	0.8702	0.209
Mof_C 	C 	0.8273	0.3081	0.8794	0.122
_end
