data_functionalizedCrystal
_audit_creation_method	'EQeq! by Chris Wilmer'
_symmetry_space_group_name_H-M	'P1'
_symmetry_Int_Tables_number	1
_symmetry_cell_setting	triclinic
loop_
_symmetry_equiv_pos_as_xyz
  x,y,z
_cell_length_a	11.4
_cell_length_b	18.657
_cell_length_c	24.38
_cell_angle_alpha	90
_cell_angle_beta	90
_cell_angle_gamma	90
loop_
_atom_site_label
_atom_site_type_symbol
_atom_site_fract_x
_atom_site_fract_y
_atom_site_fract_z
_atom_site_charge
Mof_Co	Co	0.53519	0.30028	0.51869	1.154
Mof_Co	Co	0.53519	0.69972	0.48131	1.154
Mof_Co	Co	0.46481	0.19972	0.01869	1.151
Mof_Co	Co	0.46481	0.80028	0.98131	1.157
Mof_Co	Co	0.54014	0.5	0.5	1.17
Mof_Co	Co	0.45986	0	-0	1.159
Mof_H 	H 	0.5756	0.4746	0.645	0.028
Mof_H 	H 	0.3671	0.4046	0.6809	0.195
Mof_H 	H 	0.4061	0.4834	0.6968	0.186
Mof_H 	H 	0.366	0.4661	0.6361	0.188
Mof_H 	H 	0.9076	0.3888	0.7564	0.034
Mof_H 	H 	0.8724	0.2158	0.8532	0.045
Mof_H 	H 	0.6081	0.275	0.7509	0.043
Mof_H 	H 	0.2255	0.4645	0.776	0.179
Mof_H 	H 	0.1908	0.4709	0.8387	0.186
Mof_H 	H 	0.3236	0.4591	0.8218	0.182
Mof_H 	H 	0.2364	0.3524	0.8539	0.021
Mof_H 	H 	0.3088	0.1936	0.843	0.193
Mof_H 	H 	0.3299	0.148	0.7891	0.189
Mof_H 	H 	0.2811	0.1104	0.8427	0.181
Mof_H 	H 	0.485	0.0856	0.8313	0.017
Mof_H 	H 	0.1275	0.2407	0.4486	0.09
Mof_H 	H 	0.3282	0.245	0.4513	0.004
Mof_H 	H 	0.3214	0.3461	0.5913	-0.002
Mof_H 	H 	0.1215	0.3421	0.594	0.079
Mof_H 	H 	0.9439	0.2658	0.5998	0.078
Mof_H 	H 	0.7411	0.269	0.5974	0.007
Mof_H 	H 	0.7481	0.3275	0.4437	-0.007
Mof_H 	H 	0.9473	0.3213	0.4405	0.085
Mof_H 	H 	0.4988	0.1671	0.5864	-0.004
Mof_H 	H 	0.5062	0.0452	0.5824	0.061
Mof_H 	H 	0.5903	0.0638	0.4237	0.064
Mof_H 	H 	0.5825	0.1854	0.4338	0.006
Mof_H 	H 	0.7491	0.482	0.5792	0.015
Mof_H 	H 	0.9478	0.4832	0.5811	0.079
Mof_H 	H 	0.1283	0.5585	0.5694	0.078
Mof_H 	H 	0.3291	0.5567	0.567	0.015
Mof_H 	H 	0.5476	0.3768	0.7247	0.15
Mof_H 	H 	0.0824	0.361	0.7663	0.132
Mof_H 	H 	0.5051	0.2279	0.8148	0.153
Mof_H 	H 	0.5756	0.5254	0.355	0.027
Mof_H 	H 	0.3671	0.5954	0.3191	0.195
Mof_H 	H 	0.4061	0.5166	0.3032	0.186
Mof_H 	H 	0.366	0.5339	0.3639	0.188
Mof_H 	H 	0.9076	0.6112	0.2436	0.034
Mof_H 	H 	0.8724	0.7842	0.1468	0.046
Mof_H 	H 	0.6081	0.725	0.2491	0.044
Mof_H 	H 	0.2255	0.5355	0.224	0.178
Mof_H 	H 	0.1908	0.5291	0.1613	0.184
Mof_H 	H 	0.3236	0.5409	0.1782	0.181
Mof_H 	H 	0.2364	0.6476	0.1461	0.02
Mof_H 	H 	0.3088	0.8064	0.157	0.197
Mof_H 	H 	0.3299	0.852	0.2109	0.198
Mof_H 	H 	0.2811	0.8896	0.1573	0.193
Mof_H 	H 	0.485	0.9144	0.1687	0.027
Mof_H 	H 	0.1275	0.7593	0.5514	0.092
Mof_H 	H 	0.3282	0.755	0.5487	0.005
Mof_H 	H 	0.3214	0.6539	0.4087	-0.002
Mof_H 	H 	0.1215	0.6579	0.406	0.08
Mof_H 	H 	0.9439	0.7342	0.4002	0.08
Mof_H 	H 	0.7411	0.731	0.4026	0.009
Mof_H 	H 	0.7481	0.6725	0.5563	-0.007
Mof_H 	H 	0.9473	0.6787	0.5595	0.085
Mof_H 	H 	0.4988	0.8329	0.4136	-0.01
Mof_H 	H 	0.5062	0.9548	0.4176	0.09
Mof_H 	H 	0.5903	0.9362	0.5763	0.088
Mof_H 	H 	0.5825	0.8146	0.5662	-0.002
Mof_H 	H 	0.7491	0.518	0.4208	0.015
Mof_H 	H 	0.9478	0.5168	0.4189	0.079
Mof_H 	H 	0.1283	0.4415	0.4306	0.078
Mof_H 	H 	0.3291	0.4433	0.433	0.015
Mof_H 	H 	0.5476	0.6232	0.2753	0.15
Mof_H 	H 	0.0824	0.639	0.2337	0.133
Mof_H 	H 	0.5051	0.7721	0.1852	0.153
Mof_H 	H 	0.4244	0.0254	0.145	0.023
Mof_H 	H 	0.6329	0.0954	0.1809	0.191
Mof_H 	H 	0.5939	0.0166	0.1968	0.178
Mof_H 	H 	0.634	0.0339	0.1361	0.179
Mof_H 	H 	0.0924	0.1112	0.2564	0.032
Mof_H 	H 	0.1276	0.2842	0.3532	0.045
Mof_H 	H 	0.3919	0.225	0.2509	0.044
Mof_H 	H 	0.7745	0.0355	0.276	0.172
Mof_H 	H 	0.8092	0.0291	0.3387	0.177
Mof_H 	H 	0.6764	0.0409	0.3218	0.174
Mof_H 	H 	0.7636	0.1476	0.3539	0.022
Mof_H 	H 	0.6912	0.3064	0.343	0.194
Mof_H 	H 	0.6701	0.352	0.2891	0.192
Mof_H 	H 	0.7189	0.3896	0.3427	0.186
Mof_H 	H 	0.515	0.4144	0.3313	0.022
Mof_H 	H 	0.8725	0.2593	0.9486	0.088
Mof_H 	H 	0.6718	0.255	0.9513	0.004
Mof_H 	H 	0.6786	0.1539	0.0913	-0.001
Mof_H 	H 	0.8785	0.1579	0.094	0.077
Mof_H 	H 	0.0561	0.2342	0.0998	0.077
Mof_H 	H 	0.2589	0.231	0.0974	0.009
Mof_H 	H 	0.2519	0.1725	0.9437	-0.009
Mof_H 	H 	0.0527	0.1787	0.9405	0.082
Mof_H 	H 	0.5012	0.3329	0.0864	-0.003
Mof_H 	H 	0.4938	0.4548	0.0824	0.065
Mof_H 	H 	0.4097	0.4362	0.9237	0.064
Mof_H 	H 	0.4175	0.3146	0.9338	0.005
Mof_H 	H 	0.2509	0.018	0.0792	0.014
Mof_H 	H 	0.0522	0.0168	0.0811	0.074
Mof_H 	H 	0.8717	0.9415	0.0694	0.074
Mof_H 	H 	0.6709	0.9433	0.067	0.016
Mof_H 	H 	0.4524	0.1232	0.2247	0.149
Mof_H 	H 	0.9176	0.139	0.2663	0.132
Mof_H 	H 	0.4949	0.2721	0.3148	0.153
Mof_H 	H 	0.4244	0.9746	0.855	0.031
Mof_H 	H 	0.6329	0.9046	0.8191	0.199
Mof_H 	H 	0.5939	0.9834	0.8032	0.194
Mof_H 	H 	0.634	0.9661	0.8639	0.197
Mof_H 	H 	0.0924	0.8888	0.7436	0.036
Mof_H 	H 	0.1276	0.7158	0.6468	0.045
Mof_H 	H 	0.3919	0.775	0.7491	0.044
Mof_H 	H 	0.7745	0.9645	0.724	0.186
Mof_H 	H 	0.8092	0.9709	0.6613	0.193
Mof_H 	H 	0.6764	0.9591	0.6782	0.189
Mof_H 	H 	0.7636	0.8524	0.6461	0.02
Mof_H 	H 	0.6912	0.6936	0.657	0.195
Mof_H 	H 	0.6701	0.648	0.7109	0.193
Mof_H 	H 	0.7189	0.6104	0.6573	0.186
Mof_H 	H 	0.515	0.5856	0.6687	0.022
Mof_H 	H 	0.8725	0.7407	0.0514	0.093
Mof_H 	H 	0.6718	0.745	0.0487	0.005
Mof_H 	H 	0.6786	0.8461	0.9087	-0.002
Mof_H 	H 	0.8785	0.8421	0.906	0.082
Mof_H 	H 	0.0561	0.7658	0.9002	0.08
Mof_H 	H 	0.2589	0.769	0.9026	0.007
Mof_H 	H 	0.2519	0.8275	0.0563	-0.004
Mof_H 	H 	0.0527	0.8213	0.0595	0.09
Mof_H 	H 	0.5012	0.6671	0.9136	-0.013
Mof_H 	H 	0.4938	0.5452	0.9176	0.086
Mof_H 	H 	0.4097	0.5638	0.0763	0.087
Mof_H 	H 	0.4175	0.6854	0.0662	-0.001
Mof_H 	H 	0.2509	0.982	0.9208	0.014
Mof_H 	H 	0.0522	0.9832	0.9189	0.075
Mof_H 	H 	0.8717	0.0585	0.9306	0.07
Mof_H 	H 	0.6709	0.0567	0.933	0.014
Mof_H 	H 	0.4524	0.8768	0.7753	0.151
Mof_H 	H 	0.9176	0.861	0.7337	0.133
Mof_H 	H 	0.4949	0.7279	0.6852	0.153
Mof_C 	C 	0.5378	0.3825	0.6015	0.282
Mof_C 	C 	0.5334	0.4294	0.6527	0.082
Mof_C 	C 	0.4065	0.4475	0.668	-0.519
Mof_C 	C 	0.7058	0.3854	0.7017	0.227
Mof_C 	C 	0.7521	0.3388	0.747	-0.062
Mof_C 	C 	0.8624	0.3498	0.7686	0.001
Mof_C 	C 	0.907	0.3048	0.8076	-0.067
Mof_C 	C 	0.8405	0.2476	0.8272	0.001
Mof_C 	C 	0.7256	0.2378	0.8079	-0.065
Mof_C 	C 	0.6829	0.2829	0.7659	-0.007
Mof_C 	C 	0.0264	0.3165	0.8309	0.221
Mof_C 	C 	0.2429	0.4477	0.8127	-0.52
Mof_C 	C 	0.2254	0.3675	0.8153	0.101
Mof_C 	C 	0.3149	0.3279	0.7807	0.221
Mof_C 	C 	0.6522	0.1792	0.8311	0.232
Mof_C 	C 	0.3331	0.1473	0.8289	-0.512
Mof_C 	C 	0.459	0.1316	0.8475	0.077
Mof_C 	C 	0.4633	0.1259	0.9102	0.327
Mof_C 	C 	0.1654	0.2632	0.4782	-0.135
Mof_C 	C 	0.2859	0.266	0.4802	0.078
Mof_C 	C 	0.2819	0.3245	0.5618	0.083
Mof_C 	C 	0.1616	0.3232	0.5636	-0.135
Mof_C 	C 	0.1	0.2939	0.5203	0.061
Mof_C 	C 	0.97	0.2937	0.5207	0.058
Mof_C 	C 	0.9054	0.2782	0.5671	-0.125
Mof_C 	C 	0.7836	0.281	0.5656	0.076
Mof_C 	C 	0.7884	0.3144	0.4758	0.086
Mof_C 	C 	0.9076	0.3115	0.4735	-0.129
Mof_C 	C 	0.5188	0.1456	0.5528	0.071
Mof_C 	C 	0.5227	0.0725	0.5509	-0.118
Mof_C 	C 	0.5509	0.0396	0.5024	0.02
Mof_C 	C 	0.5722	0.0836	0.4581	-0.115
Mof_C 	C 	0.5667	0.1565	0.4646	0.075
Mof_C 	C 	0.79	0.4897	0.5463	0.071
Mof_C 	C 	0.909	0.49	0.5475	-0.124
Mof_C 	C 	0.1672	0.5344	0.5408	-0.119
Mof_C 	C 	0.288	0.5329	0.5389	0.06
Mof_C 	C 	0.5378	0.6175	0.3985	0.281
Mof_C 	C 	0.5334	0.5706	0.3473	0.082
Mof_C 	C 	0.4065	0.5525	0.332	-0.52
Mof_C 	C 	0.7058	0.6146	0.2983	0.227
Mof_C 	C 	0.7521	0.6612	0.253	-0.061
Mof_C 	C 	0.8624	0.6502	0.2314	0.001
Mof_C 	C 	0.907	0.6952	0.1924	-0.067
Mof_C 	C 	0.8405	0.7524	0.1728	0.001
Mof_C 	C 	0.7256	0.7622	0.1921	-0.063
Mof_C 	C 	0.6829	0.7171	0.2341	-0.007
Mof_C 	C 	0.0264	0.6835	0.1691	0.221
Mof_C 	C 	0.2429	0.5523	0.1873	-0.517
Mof_C 	C 	0.2254	0.6325	0.1847	0.1
Mof_C 	C 	0.3149	0.6721	0.2193	0.221
Mof_C 	C 	0.6522	0.8208	0.1689	0.232
Mof_C 	C 	0.3331	0.8527	0.1711	-0.523
Mof_C 	C 	0.459	0.8684	0.1525	0.081
Mof_C 	C 	0.4633	0.8741	0.0898	0.326
Mof_C 	C 	0.1654	0.7368	0.5218	-0.134
Mof_C 	C 	0.2859	0.734	0.5198	0.08
Mof_C 	C 	0.2819	0.6755	0.4382	0.084
Mof_C 	C 	0.1616	0.6768	0.4364	-0.135
Mof_C 	C 	0.1	0.7061	0.4797	0.062
Mof_C 	C 	0.97	0.7063	0.4793	0.059
Mof_C 	C 	0.9054	0.7218	0.4329	-0.124
Mof_C 	C 	0.7836	0.719	0.4344	0.077
Mof_C 	C 	0.7884	0.6856	0.5242	0.087
Mof_C 	C 	0.9076	0.6885	0.5265	-0.128
Mof_C 	C 	0.5188	0.8544	0.4472	0.099
Mof_C 	C 	0.5227	0.9275	0.4491	-0.162
Mof_C 	C 	0.5509	0.9604	0.4976	0.1
Mof_C 	C 	0.5722	0.9164	0.5419	-0.158
Mof_C 	C 	0.5667	0.8435	0.5354	0.101
Mof_C 	C 	0.79	0.5103	0.4537	0.071
Mof_C 	C 	0.909	0.51	0.4525	-0.124
Mof_C 	C 	0.1672	0.4656	0.4592	-0.119
Mof_C 	C 	0.288	0.4671	0.4611	0.06
Mof_C 	C 	0.4622	0.1175	0.1015	0.283
Mof_C 	C 	0.4666	0.0706	0.1527	0.078
Mof_C 	C 	0.5935	0.0525	0.168	-0.509
Mof_C 	C 	0.2942	0.1146	0.2017	0.226
Mof_C 	C 	0.2479	0.1612	0.247	-0.063
Mof_C 	C 	0.1376	0.1502	0.2686	0.001
Mof_C 	C 	0.093	0.1952	0.3076	-0.068
Mof_C 	C 	0.1595	0.2524	0.3272	0.001
Mof_C 	C 	0.2744	0.2622	0.3079	-0.065
Mof_C 	C 	0.3171	0.2171	0.2659	-0.007
Mof_C 	C 	0.9736	0.1835	0.3309	0.22
Mof_C 	C 	0.7571	0.0523	0.3127	-0.505
Mof_C 	C 	0.7746	0.1325	0.3153	0.095
Mof_C 	C 	0.6851	0.1721	0.2807	0.223
Mof_C 	C 	0.3478	0.3208	0.3311	0.232
Mof_C 	C 	0.6669	0.3527	0.3289	-0.516
Mof_C 	C 	0.541	0.3684	0.3475	0.078
Mof_C 	C 	0.5367	0.3741	0.4102	0.328
Mof_C 	C 	0.8346	0.2368	0.9782	-0.12
Mof_C 	C 	0.7141	0.234	0.9802	0.087
Mof_C 	C 	0.7181	0.1755	0.0618	0.078
Mof_C 	C 	0.8384	0.1768	0.0636	-0.132
Mof_C 	C 	0.9	0.2061	0.0203	0.049
Mof_C 	C 	0.03	0.2063	0.0207	0.047
Mof_C 	C 	0.0946	0.2218	0.0671	-0.121
Mof_C 	C 	0.2164	0.219	0.0656	0.073
Mof_C 	C 	0.2116	0.1856	0.9758	0.095
Mof_C 	C 	0.0924	0.1885	0.9735	-0.115
Mof_C 	C 	0.4812	0.3544	0.0528	0.068
Mof_C 	C 	0.4773	0.4275	0.0509	-0.113
Mof_C 	C 	0.4491	0.4604	0.0024	0.011
Mof_C 	C 	0.4278	0.4164	0.9581	-0.1
Mof_C 	C 	0.4333	0.3435	0.9646	0.084
Mof_C 	C 	0.21	0.0103	0.0463	0.06
Mof_C 	C 	0.091	0.01	0.0475	-0.118
Mof_C 	C 	0.8328	0.9656	0.0408	-0.092
Mof_C 	C 	0.712	0.9671	0.0389	0.07
Mof_C 	C 	0.4622	0.8825	0.8985	0.279
Mof_C 	C 	0.4666	0.9294	0.8473	0.087
Mof_C 	C 	0.5935	0.9475	0.832	-0.531
Mof_C 	C 	0.2942	0.8854	0.7983	0.228
Mof_C 	C 	0.2479	0.8388	0.753	-0.06
Mof_C 	C 	0.1376	0.8498	0.7314	0.001
Mof_C 	C 	0.093	0.8048	0.6924	-0.066
Mof_C 	C 	0.1595	0.7476	0.6728	0.001
Mof_C 	C 	0.2744	0.7378	0.6921	-0.064
Mof_C 	C 	0.3171	0.7829	0.7341	-0.007
Mof_C 	C 	0.9736	0.8165	0.6691	0.222
Mof_C 	C 	0.7571	0.9477	0.6873	-0.532
Mof_C 	C 	0.7746	0.8675	0.6847	0.106
Mof_C 	C 	0.6851	0.8279	0.7193	0.219
Mof_C 	C 	0.3478	0.6792	0.6689	0.232
Mof_C 	C 	0.6669	0.6473	0.6711	-0.517
Mof_C 	C 	0.541	0.6316	0.6525	0.079
Mof_C 	C 	0.5367	0.6259	0.5898	0.328
Mof_C 	C 	0.8346	0.7632	0.0218	-0.146
Mof_C 	C 	0.7141	0.766	0.0198	0.073
Mof_C 	C 	0.7181	0.8245	0.9382	0.088
Mof_C 	C 	0.8384	0.8232	0.9364	-0.138
Mof_C 	C 	0.9	0.7939	0.9797	0.074
Mof_C 	C 	0.03	0.7937	0.9793	0.069
Mof_C 	C 	0.0946	0.7782	0.9329	-0.127
Mof_C 	C 	0.2164	0.781	0.9344	0.08
Mof_C 	C 	0.2116	0.8144	0.0242	0.081
Mof_C 	C 	0.0924	0.8115	0.0265	-0.139
Mof_C 	C 	0.4812	0.6456	0.9472	0.102
Mof_C 	C 	0.4773	0.5725	0.9491	-0.166
Mof_C 	C 	0.4491	0.5396	0.9976	0.109
Mof_C 	C 	0.4278	0.5836	0.0419	-0.173
Mof_C 	C 	0.4333	0.6565	0.0354	0.093
Mof_C 	C 	0.21	0.9897	0.9537	0.09
Mof_C 	C 	0.091	0.99	0.9525	-0.091
Mof_C 	C 	0.8328	0.0344	0.9592	-0.099
Mof_C 	C 	0.712	0.0329	0.9611	0.061
Mof_C 	C 	0.9748	0.5	0.5	0.053
Mof_C 	C 	0.1036	0.5	0.5	0.048
Mof_C 	C 	0.0252	0	-0	0.026
Mof_C 	C 	0.8964	0	-0	0.015
Mof_N 	N 	0.591	0.3936	0.6983	-0.233
Mof_N 	N 	0.1045	0.3493	0.7993	-0.231
Mof_N 	N 	0.5346	0.1885	0.82809	-0.232
Mof_N 	N 	0.3473	0.2972	0.5211	-0.233
Mof_N 	N 	0.725	0.3	0.5203	-0.231
Mof_N 	N 	0.5409	0.1886	0.51096	-0.243
Mof_N 	N 	0.591	0.6064	0.3017	-0.233
Mof_N 	N 	0.1045	0.6507	0.2007	-0.231
Mof_N 	N 	0.5346	0.8115	0.17191	-0.232
Mof_N 	N 	0.3473	0.7028	0.4789	-0.233
Mof_N 	N 	0.725	0.7	0.4797	-0.231
Mof_N 	N 	0.5409	0.8114	0.48904	-0.252
Mof_N 	N 	0.409	0.1064	0.1983	-0.233
Mof_N 	N 	0.8955	0.1507	0.2993	-0.23
Mof_N 	N 	0.4654	0.3115	0.32809	-0.232
Mof_N 	N 	0.6527	0.2028	0.0211	-0.239
Mof_N 	N 	0.275	0.2	0.0203	-0.237
Mof_N 	N 	0.4591	0.3114	0.01096	-0.249
Mof_N 	N 	0.409	0.8936	0.8017	-0.233
Mof_N 	N 	0.8955	0.8493	0.7007	-0.231
Mof_N 	N 	0.4654	0.6885	0.67191	-0.232
Mof_N 	N 	0.6527	0.7972	0.9789	-0.227
Mof_N 	N 	0.275	0.8	0.9797	-0.226
Mof_N 	N 	0.4591	0.6886	0.98904	-0.247
Mof_N 	N 	0.7281	0.5	0.5	-0.225
Mof_N 	N 	0.3511	0.5	0.5	-0.226
Mof_N 	N 	0.2719	0	-0	-0.242
Mof_N 	N 	0.6489	0	-0	-0.243
Mof_O 	O 	0.5356	0.40928	0.55372	-0.499
Mof_O 	O 	0.5383	0.3143	0.6064	-0.368
Mof_O 	O 	0.7736	0.4131	0.6676	-0.237
Mof_O 	O 	0.2801	0.2937	0.7398	-0.236
Mof_O 	O 	0.4213	0.3345	0.7946	-0.248
Mof_O 	O 	0.0509	0.2989	0.8789	-0.234
Mof_O 	O 	0.4713	0.1832	0.93724	-0.427
Mof_O 	O 	0.4529	0.0637	0.93018	-0.429
Mof_O 	O 	0.6958	0.1261	0.8517	-0.254
Mof_O 	O 	0.5356	0.59072	0.44628	-0.499
Mof_O 	O 	0.5383	0.6857	0.3936	-0.366
Mof_O 	O 	0.7736	0.5869	0.3324	-0.237
Mof_O 	O 	0.2801	0.7063	0.2602	-0.234
Mof_O 	O 	0.4213	0.6655	0.2054	-0.248
Mof_O 	O 	0.0509	0.7011	0.1211	-0.236
Mof_O 	O 	0.4713	0.8168	0.06276	-0.434
Mof_O 	O 	0.4529	0.9363	0.06982	-0.419
Mof_O 	O 	0.6958	0.8739	0.1483	-0.246
Mof_O 	O 	0.4644	0.09072	0.05372	-0.503
Mof_O 	O 	0.4617	0.1857	0.1064	-0.368
Mof_O 	O 	0.2264	0.0869	0.1676	-0.239
Mof_O 	O 	0.7199	0.2063	0.2398	-0.236
Mof_O 	O 	0.5787	0.1655	0.2946	-0.25
Mof_O 	O 	0.9491	0.2011	0.3789	-0.236
Mof_O 	O 	0.5287	0.3168	0.43724	-0.432
Mof_O 	O 	0.5471	0.4363	0.43018	-0.429
Mof_O 	O 	0.3042	0.3739	0.3517	-0.251
Mof_O 	O 	0.4644	0.90928	0.94628	-0.488
Mof_O 	O 	0.4617	0.8143	0.8936	-0.366
Mof_O 	O 	0.2264	0.9131	0.8324	-0.234
Mof_O 	O 	0.7199	0.7937	0.7602	-0.234
Mof_O 	O 	0.5787	0.8345	0.7054	-0.247
Mof_O 	O 	0.9491	0.7989	0.6211	-0.234
Mof_O 	O 	0.5287	0.6832	0.56276	-0.431
Mof_O 	O 	0.5471	0.5637	0.56982	-0.429
Mof_O 	O 	0.3042	0.6261	0.6483	-0.251
_end
