data_functionalizedCrystal
_audit_creation_method	'EQeq! by Chris Wilmer'
_symmetry_space_group_name_H-M	'P1'
_symmetry_Int_Tables_number	1
_symmetry_cell_setting	triclinic
loop_
_symmetry_equiv_pos_as_xyz
  x,y,z
_cell_length_a	6.405
_cell_length_b	14.164
_cell_length_c	20.098
_cell_angle_alpha	90
_cell_angle_beta	95.29
_cell_angle_gamma	90
loop_
_atom_site_label
_atom_site_type_symbol
_atom_site_fract_x
_atom_site_fract_y
_atom_site_fract_z
_atom_site_charge
Mof_Zn	Zn	0.98554	0.19286	0.94185	1.262
Mof_Zn	Zn	0.51452	0.60197	0.54392	1.248
Mof_Zn	Zn	0.01446	0.69286	0.55815	1.207
Mof_Zn	Zn	0.48548	0.10197	0.95608	1.244
Mof_Zn	Zn	0.01446	0.80714	0.05815	1.207
Mof_Zn	Zn	0.48548	0.39803	0.45608	1.247
Mof_Zn	Zn	0.98554	0.30714	0.44185	1.264
Mof_Zn	Zn	0.51452	0.89803	0.04392	1.252
Mof_Zn	Zn	6.4249e-33	0.5	0.5	1.22
Mof_Zn	Zn	-0	0	-0	1.195
Mof_H 	H 	0.1362	0.2974	0.6753	0.01
Mof_H 	H 	0.2623	0.2164	0.7714	0.014
Mof_H 	H 	0.8371	0.323	0.7548	0.072
Mof_H 	H 	0.7148	0.3973	0.6565	0.028
Mof_H 	H 	0.7113	0.3745	0.9736	0.074
Mof_H 	H 	0.1553	0.4735	0.0199	0.048
Mof_H 	H 	0.222	0.631	0.472	0.405
Mof_H 	H 	0.842	0.574	0.5984	0.755
Mof_H 	H 	0.8638	0.7974	0.8247	0.072
Mof_H 	H 	0.7377	0.7164	0.7286	0.041
Mof_H 	H 	0.1629	0.823	0.7452	0.02
Mof_H 	H 	0.2852	0.8973	0.8435	0.016
Mof_H 	H 	0.2887	0.8745	0.5264	-0.028
Mof_H 	H 	0.8447	0.9735	0.4801	0.035
Mof_H 	H 	0.778	0.131	0.028	0.371
Mof_H 	H 	0.158	0.074	0.9016	0.723
Mof_H 	H 	0.8638	0.7026	0.3247	0.069
Mof_H 	H 	0.7377	0.7836	0.2286	0.046
Mof_H 	H 	0.1629	0.677	0.2452	0.019
Mof_H 	H 	0.2852	0.6027	0.3435	0.007
Mof_H 	H 	0.2887	0.6255	0.0264	-0.008
Mof_H 	H 	0.8447	0.5265	0.9801	0.052
Mof_H 	H 	0.778	0.369	0.528	0.421
Mof_H 	H 	0.158	0.426	0.4016	0.74
Mof_H 	H 	0.1362	0.2026	0.1753	0.006
Mof_H 	H 	0.2623	0.2836	0.2714	0.018
Mof_H 	H 	0.8371	0.177	0.2548	0.071
Mof_H 	H 	0.7148	0.1027	0.1565	0.019
Mof_H 	H 	0.7113	0.1255	0.4736	0.094
Mof_H 	H 	0.1553	0.0265	0.5199	0.067
Mof_H 	H 	0.222	0.869	0.972	0.451
Mof_H 	H 	0.842	0.926	0.0984	0.768
Mof_C 	C 	0.3312	0.4147	0.59601	0.378
Mof_C 	C 	0.4117	0.3575	0.65595	-0.113
Mof_C 	C 	0.2771	0.3022	0.6909	-0.006
Mof_C 	C 	0.3525	0.2538	0.749	-0.031
Mof_C 	C 	0.5636	0.2617	0.77339	-0.078
Mof_C 	C 	0.6969	0.3168	0.7386	-0.032
Mof_C 	C 	0.6225	0.3627	0.68	0.005
Mof_C 	C 	0.6445	0.2141	0.83757	0.373
Mof_C 	C 	0.3259	0.3098	0.98933	0.361
Mof_C 	C 	0.4179	0.4081	0.9959	-0.004
Mof_C 	C 	0.6262	0.4245	0.9841	-0.075
Mof_C 	C 	0.294	0.484	0.0118	-0.123
Mof_C 	C 	0.6688	0.9147	0.90399	0.356
Mof_C 	C 	0.5883	0.8575	0.84405	-0.071
Mof_C 	C 	0.7229	0.8022	0.8091	-0.024
Mof_C 	C 	0.6475	0.7538	0.751	0.005
Mof_C 	C 	0.4364	0.7617	0.72661	-0.1
Mof_C 	C 	0.3031	0.8168	0.7614	-0.007
Mof_C 	C 	0.3775	0.8627	0.82	-0.027
Mof_C 	C 	0.3555	0.7141	0.66243	0.387
Mof_C 	C 	0.6741	0.8098	0.51067	0.41
Mof_C 	C 	0.5821	0.9081	0.5041	-0.173
Mof_C 	C 	0.3738	0.9245	0.5159	0.143
Mof_C 	C 	0.706	0.984	0.4882	0.146
Mof_C 	C 	0.6688	0.5853	0.40399	0.359
Mof_C 	C 	0.5883	0.6425	0.34405	-0.083
Mof_C 	C 	0.7229	0.6978	0.3091	-0.02
Mof_C 	C 	0.6475	0.7462	0.251	-0.001
Mof_C 	C 	0.4364	0.7383	0.22661	-0.096
Mof_C 	C 	0.3031	0.6832	0.2614	-0.015
Mof_C 	C 	0.3775	0.6373	0.32	-0.023
Mof_C 	C 	0.3555	0.7859	0.16243	0.385
Mof_C 	C 	0.6741	0.6902	0.01067	0.398
Mof_C 	C 	0.5821	0.5919	0.0041	-0.164
Mof_C 	C 	0.3738	0.5755	0.0159	0.054
Mof_C 	C 	0.706	0.516	0.9882	0.086
Mof_C 	C 	0.3312	0.0853	0.09601	0.379
Mof_C 	C 	0.4117	0.1425	0.15595	-0.126
Mof_C 	C 	0.2771	0.1978	0.1909	-0.003
Mof_C 	C 	0.3525	0.2462	0.249	-0.038
Mof_C 	C 	0.5636	0.2383	0.27339	-0.074
Mof_C 	C 	0.6969	0.1832	0.2386	-0.039
Mof_C 	C 	0.6225	0.1373	0.18	0.008
Mof_C 	C 	0.6445	0.2859	0.33757	0.372
Mof_C 	C 	0.3259	0.1902	0.48933	0.35
Mof_C 	C 	0.4179	0.0919	0.4959	0.002
Mof_C 	C 	0.6262	0.0755	0.4841	-0.167
Mof_C 	C 	0.294	0.016	0.5118	-0.18
Mof_O 	O 	0.4669	0.45254	0.56158	-0.54
Mof_O 	O 	0.1368	0.42324	0.58341	-0.503
Mof_O 	O 	0.8244	0.24054	0.86211	-0.465
Mof_O 	O 	0.5329	0.1514	0.86132	-0.483
Mof_O 	O 	0.4498	0.242	0.99218	-0.442
Mof_O 	O 	0.127	0.3043	0.98029	-0.503
Mof_O 	O 	0.2063	0.61687	0.50818	-0.989
Mof_O 	O 	0.8264	0.58358	0.56643	-1.34
Mof_O 	O 	0.5331	0.95254	0.93842	-0.503
Mof_O 	O 	0.8632	0.92324	0.91659	-0.395
Mof_O 	O 	0.1756	0.74054	0.63789	-0.517
Mof_O 	O 	0.4671	0.6514	0.63868	-0.475
Mof_O 	O 	0.5502	0.742	0.50782	-0.461
Mof_O 	O 	0.873	0.8043	0.51971	-0.431
Mof_O 	O 	0.7937	0.11687	0.99182	-0.894
Mof_O 	O 	0.1736	0.08358	0.93357	-1.396
Mof_O 	O 	0.5331	0.54746	0.43842	-0.534
Mof_O 	O 	0.8632	0.57676	0.41659	-0.42
Mof_O 	O 	0.1756	0.75946	0.13789	-0.518
Mof_O 	O 	0.4671	0.8486	0.13868	-0.464
Mof_O 	O 	0.5502	0.758	0.00782	-0.47
Mof_O 	O 	0.873	0.6957	0.01971	-0.443
Mof_O 	O 	0.7937	0.38313	0.49182	-0.944
Mof_O 	O 	0.1736	0.41642	0.43357	-1.408
Mof_O 	O 	0.4669	0.04746	0.06158	-0.572
Mof_O 	O 	0.1368	0.07676	0.08341	-0.523
Mof_O 	O 	0.8244	0.25946	0.36211	-0.465
Mof_O 	O 	0.5329	0.3486	0.36132	-0.473
Mof_O 	O 	0.4498	0.258	0.49218	-0.452
Mof_O 	O 	0.127	0.1957	0.48029	-0.518
Mof_O 	O 	0.2063	0.88313	0.00818	-1.029
Mof_O 	O 	0.8264	0.91642	0.06643	-1.336
_end
