data_functionalizedCrystal
_audit_creation_method	'EQeq! by Chris Wilmer'
_symmetry_space_group_name_H-M	'P1'
_symmetry_Int_Tables_number	1
_symmetry_cell_setting	triclinic
loop_
_symmetry_equiv_pos_as_xyz
  x,y,z
_cell_length_a	9.5221
_cell_length_b	12.9065
_cell_length_c	12.9065
_cell_angle_alpha	92.0207
_cell_angle_beta	90
_cell_angle_gamma	90
loop_
_atom_site_label
_atom_site_type_symbol
_atom_site_fract_x
_atom_site_fract_y
_atom_site_fract_z
_atom_site_charge
Mof_U 	U 	0.12136	0.40094	0.81926	0.036
Mof_U 	U 	0.62136	0.59906	0.18074	0.042
Mof_U 	U 	0.62136	0.18074	0.59906	0.041
Mof_U 	U 	0.12136	0.81926	0.40094	0.035
Mof_U 	U 	0.29507	0.29304	0.29304	0.045
Mof_U 	U 	0.79507	0.70696	0.70696	0.046
Mof_P 	P 	0.2488	0.57158	0.27032	0.368
Mof_P 	P 	0.316	0.46355	0.06979	0.351
Mof_P 	P 	0.7488	0.42842	0.72968	0.367
Mof_P 	P 	0.816	0.53645	0.93021	0.348
Mof_P 	P 	0.7488	0.72968	0.42842	0.367
Mof_P 	P 	0.816	0.93021	0.53645	0.348
Mof_P 	P 	0.2488	0.27032	0.57158	0.368
Mof_P 	P 	0.316	0.06979	0.46355	0.351
Mof_H 	H 	0.15	0.713	0.127	0.256
Mof_H 	H 	0.3	0.684	0.074	0.242
Mof_H 	H 	0.15	0.656	0.018	0.248
Mof_H 	H 	0.0311	0.5066	0.073	0.27
Mof_H 	H 	0.65	0.287	0.873	0.264
Mof_H 	H 	0.8	0.316	0.926	0.25
Mof_H 	H 	0.65	0.344	0.982	0.257
Mof_H 	H 	0.5311	0.4934	0.927	0.276
Mof_H 	H 	0.65	0.873	0.287	0.264
Mof_H 	H 	0.8	0.926	0.316	0.25
Mof_H 	H 	0.65	0.982	0.344	0.257
Mof_H 	H 	0.5311	0.927	0.4934	0.276
Mof_H 	H 	0.15	0.127	0.713	0.256
Mof_H 	H 	0.3	0.074	0.684	0.242
Mof_H 	H 	0.15	0.018	0.656	0.248
Mof_H 	H 	0.0311	0.073	0.5066	0.27
Mof_C 	C 	0.1982	0.5585	0.1345	0.173
Mof_C 	C 	0.1998	0.6621	0.0835	-0.601
Mof_C 	C 	0.6982	0.4415	0.8655	0.179
Mof_C 	C 	0.6998	0.3379	0.9165	-0.615
Mof_C 	C 	0.6982	0.8655	0.4415	0.179
Mof_C 	C 	0.6998	0.9165	0.3379	-0.615
Mof_C 	C 	0.1982	0.1345	0.5585	0.173
Mof_C 	C 	0.1998	0.0835	0.6621	-0.601
Mof_O 	O 	0.166	0.5206	0.7656	-0.034
Mof_O 	O 	0.2571	0.4439	0.9631	-0.16
Mof_O 	O 	0.1574	0.6555	0.3213	-0.132
Mof_O 	O 	0.2287	0.4679	0.3193	-0.119
Mof_O 	O 	0.0791	0.2792	0.8702	-0.078
Mof_O 	O 	0.3682	0.3402	0.8042	-0.042
Mof_O 	O 	0.4607	0.5154	0.0644	-0.186
Mof_O 	O 	0.3202	0.3657	0.1337	-0.137
Mof_O 	O 	0.4016	0.6036	0.269	-0.137
Mof_O 	O 	0.0576	0.5149	0.1333	-0.344
Mof_O 	O 	0.666	0.4794	0.2344	-0.023
Mof_O 	O 	0.7571	0.5561	0.0369	-0.151
Mof_O 	O 	0.6574	0.3445	0.6787	-0.125
Mof_O 	O 	0.7287	0.5321	0.6807	-0.115
Mof_O 	O 	0.5791	0.7208	0.1298	-0.068
Mof_O 	O 	0.8682	0.6598	0.1958	-0.033
Mof_O 	O 	0.9607	0.4846	0.9356	-0.174
Mof_O 	O 	0.8202	0.6343	0.8663	-0.134
Mof_O 	O 	0.9016	0.3964	0.731	-0.128
Mof_O 	O 	0.5576	0.4851	0.8667	-0.341
Mof_O 	O 	0.666	0.2344	0.4794	-0.023
Mof_O 	O 	0.7571	0.0369	0.5561	-0.151
Mof_O 	O 	0.6574	0.6787	0.3445	-0.125
Mof_O 	O 	0.7287	0.6807	0.5321	-0.115
Mof_O 	O 	0.5791	0.1298	0.7208	-0.068
Mof_O 	O 	0.8682	0.1958	0.6598	-0.033
Mof_O 	O 	0.9607	0.9356	0.4846	-0.174
Mof_O 	O 	0.8202	0.8663	0.6343	-0.134
Mof_O 	O 	0.9016	0.731	0.3964	-0.128
Mof_O 	O 	0.5576	0.8667	0.4851	-0.341
Mof_O 	O 	0.166	0.7656	0.5206	-0.034
Mof_O 	O 	0.2571	0.9631	0.4439	-0.16
Mof_O 	O 	0.1574	0.3213	0.6555	-0.132
Mof_O 	O 	0.2287	0.3193	0.4679	-0.119
Mof_O 	O 	0.0791	0.8702	0.2792	-0.078
Mof_O 	O 	0.3682	0.8042	0.3402	-0.042
Mof_O 	O 	0.4607	0.0644	0.5154	-0.186
Mof_O 	O 	0.3202	0.1337	0.3657	-0.137
Mof_O 	O 	0.4016	0.269	0.6036	-0.137
Mof_O 	O 	0.0576	0.1333	0.5149	-0.344
Mof_O 	O 	0.123	0.2593	0.2593	-0.035
Mof_O 	O 	0.385	0.1623	0.1623	-0.045
Mof_O 	O 	0.4709	0.3251	0.3251	-0.023
Mof_O 	O 	0.623	0.7407	0.7407	-0.03
Mof_O 	O 	0.885	0.8377	0.8377	-0.04
Mof_O 	O 	0.9709	0.6749	0.6749	-0.016
_end
