# CIF file generated by openbabel 3.1.0, see https://openbabel.org
data_I
_chemical_name_common 'image0'
_cell_length_a 10.7864
_cell_length_b 12.2053
_cell_length_c 19
_cell_angle_alpha 90
_cell_angle_beta 92.239
_cell_angle_gamma 90
_space_group_name_H-M_alt 'P 1'
_space_group_name_Hall 'P 1'
loop_
    _symmetry_equiv_pos_as_xyz
    x,y,z
loop_
    _atom_site_label
    _atom_site_type_symbol
    _atom_site_fract_x
    _atom_site_fract_y
    _atom_site_fract_z
    _atom_site_occupancy
    U1       U        0.40774    0.04086    0.12388    1.000
    U2       U        0.03327    0.31601    0.18761    1.000
    O1       O        0.35240    0.11990    0.23380    1.000
    O2       O        0.15300    0.16600    0.22310    1.000
    O3       O        0.12260    0.96270    0.29830    1.000
    O4       O        0.03220    0.95660    0.39950    1.000
    O5       O        0.13600    0.22000    0.58410    1.000
    O6       O        0.33030    0.27910    0.59350    1.000
    O7       O        0.36100    0.43900    0.50060    1.000
    O8       O        0.50290    0.38300    0.42650    1.000
    C1       C        0.24950    0.16120    0.33800    1.000
    C2       C        0.32330    0.24560    0.36460    1.000
    H1       H        0.37360    0.28380    0.33440    1.000
    C3       C        0.32380    0.27480    0.43590    1.000
    C4       C        0.24570    0.21760    0.48140    1.000
    C5       C        0.17650    0.13000    0.45390    1.000
    H2       H        0.12690    0.09020    0.48360    1.000
    C6       C        0.17950    0.10030    0.38350    1.000
    C7       C        0.10630    0.00180    0.35930    1.000
    C8       C        0.24980    0.14600    0.25830    1.000
    C9       C        0.40180    0.37340    0.45740    1.000
    C10      C        0.23900    0.24240    0.55900    1.000
    U3       U        0.59226    0.54086    0.37612    1.000
    U4       U        0.96673    0.81601    0.31239    1.000
    O9       O        0.64760    0.61990    0.26620    1.000
    O10      O        0.84700    0.66600    0.27690    1.000
    O11      O        0.87740    0.46270    0.20170    1.000
    O12      O        0.96780    0.45660    0.10050    1.000
    O13      O        0.86400    0.72000    0.91590    1.000
    O14      O        0.66970    0.77910    0.90650    1.000
    O15      O        0.63900    0.93900    0.99940    1.000
    O16      O        0.49710    0.88300    0.07350    1.000
    C11      C        0.75050    0.66120    0.16200    1.000
    C12      C        0.67670    0.74560    0.13540    1.000
    H3       H        0.62640    0.78380    0.16560    1.000
    C13      C        0.67620    0.77480    0.06410    1.000
    C14      C        0.75430    0.71760    0.01860    1.000
    C15      C        0.82350    0.63000    0.04610    1.000
    H4       H        0.87310    0.59020    0.01640    1.000
    C16      C        0.82050    0.60030    0.11650    1.000
    C17      C        0.89370    0.50180    0.14070    1.000
    C18      C        0.75020    0.64600    0.24170    1.000
    C19      C        0.59820    0.87340    0.04260    1.000
    C20      C        0.76100    0.74240    0.94100    1.000
    U5       U        0.59226    0.95914    0.87612    1.000
    U6       U        0.96673    0.68399    0.81239    1.000
    O17      O        0.64760    0.88010    0.76620    1.000
    O18      O        0.84700    0.83400    0.77690    1.000
    O19      O        0.87740    0.03730    0.70170    1.000
    O20      O        0.96780    0.04340    0.60050    1.000
    O21      O        0.86400    0.78000    0.41590    1.000
    O22      O        0.66970    0.72090    0.40650    1.000
    O23      O        0.63900    0.56100    0.49940    1.000
    O24      O        0.49710    0.61700    0.57350    1.000
    C21      C        0.75050    0.83880    0.66200    1.000
    C22      C        0.67670    0.75440    0.63540    1.000
    H5       H        0.62640    0.71620    0.66560    1.000
    C23      C        0.67620    0.72520    0.56410    1.000
    C24      C        0.75430    0.78240    0.51860    1.000
    C25      C        0.82350    0.87000    0.54610    1.000
    H6       H        0.87310    0.90980    0.51640    1.000
    C26      C        0.82050    0.89970    0.61650    1.000
    C27      C        0.89370    0.99820    0.64070    1.000
    C28      C        0.75020    0.85400    0.74170    1.000
    C29      C        0.59820    0.62660    0.54260    1.000
    C30      C        0.76100    0.75760    0.44100    1.000
    U7       U        0.40774    0.45914    0.62388    1.000
    U8       U        0.03327    0.18399    0.68761    1.000
    O25      O        0.35240    0.38010    0.73380    1.000
    O26      O        0.15300    0.33400    0.72310    1.000
    O27      O        0.12260    0.53730    0.79830    1.000
    O28      O        0.03220    0.54340    0.89950    1.000
    O29      O        0.13600    0.28000    0.08410    1.000
    O30      O        0.33030    0.22090    0.09350    1.000
    O31      O        0.36100    0.06100    0.00060    1.000
    O32      O        0.50290    0.11700    0.92650    1.000
    C31      C        0.24950    0.33880    0.83800    1.000
    C32      C        0.32330    0.25440    0.86460    1.000
    H7       H        0.37360    0.21620    0.83440    1.000
    C33      C        0.32380    0.22520    0.93590    1.000
    C34      C        0.24570    0.28240    0.98140    1.000
    C35      C        0.17650    0.37000    0.95390    1.000
    H8       H        0.12690    0.40980    0.98360    1.000
    C36      C        0.17950    0.39970    0.88350    1.000
    C37      C        0.10630    0.49820    0.85930    1.000
    C38      C        0.24980    0.35400    0.75830    1.000
    C39      C        0.40180    0.12660    0.95740    1.000
    C40      C        0.23900    0.25760    0.05900    1.000
