# CIF file generated by openbabel 3.1.0, see https://openbabel.org
data_I
_chemical_name_common 'GEDRAK_clean'
_cell_length_a 12.6284
_cell_length_b 14.8265
_cell_length_c 16.1342
_cell_angle_alpha 117.353
_cell_angle_beta 101.841
_cell_angle_gamma 90
_space_group_name_H-M_alt 'P 1'
_space_group_name_Hall 'P 1'
loop_
    _symmetry_equiv_pos_as_xyz
    x,y,z
loop_
    _atom_site_label
    _atom_site_type_symbol
    _atom_site_fract_x
    _atom_site_fract_y
    _atom_site_fract_z
    _atom_site_occupancy
    Nd1      Nd       0.44282    0.96487    0.35980    1.000
    Nd2      Nd       0.05718    0.60506    0.64018    1.000
    Nd3      Nd       0.55718    0.03513    0.64020    1.000
    Nd4      Nd       0.94282    0.39493    0.35981    1.000
    H1       H        0.57730    0.87640    0.06240    1.000
    H2       H        0.62490    0.77000    0.92060    1.000
    H3       H        0.59850    0.53370    0.97540    1.000
    H4       H        0.54520    0.64080    0.11560    1.000
    H5       H        0.57510    0.29920    0.68320    1.000
    H6       H        0.77010    0.53150    0.71420    1.000
    H7       H        0.68860    0.27900    0.46020    1.000
    H8       H        0.63900    0.60500    0.80200    1.000
    H9       H        0.92270    0.81400    0.93760    1.000
    H10      H        0.87510    0.84940    0.07940    1.000
    H11      H        0.90150    0.55830    0.02460    1.000
    H12      H        0.95480    0.52520    0.88440    1.000
    H13      H        0.92490    0.61600    0.31680    1.000
    H14      H        0.72990    0.81730    0.28580    1.000
    H15      H        0.81140    0.81880    0.53980    1.000
    H16      H        0.86100    0.80300    0.19800    1.000
    H17      H        0.42270    0.12360    0.93760    1.000
    H18      H        0.37510    0.23000    0.07940    1.000
    H19      H        0.40150    0.46630    0.02460    1.000
    H20      H        0.45480    0.35920    0.88440    1.000
    H21      H        0.42490    0.70080    0.31680    1.000
    H22      H        0.22990    0.46850    0.28580    1.000
    H23      H        0.31140    0.72100    0.53980    1.000
    H24      H        0.36100    0.39500    0.19800    1.000
    H25      H        0.07730    0.18600    0.06240    1.000
    H26      H        0.12490    0.15060    0.92060    1.000
    H27      H        0.09850    0.44170    0.97540    1.000
    H28      H        0.04520    0.47480    0.11560    1.000
    H29      H        0.07510    0.38400    0.68320    1.000
    H30      H        0.27010    0.18270    0.71420    1.000
    H31      H        0.18860    0.18120    0.46020    1.000
    H32      H        0.13900    0.19700    0.80200    1.000
    C1       C        0.51060    0.83490    0.18880    1.000
    C2       C        0.55250    0.76800    0.10100    1.000
    C3       C        0.57920    0.80710    0.04380    1.000
    C4       C        0.60890    0.74360    0.95940    1.000
    C5       C        0.61480    0.64070    0.93220    1.000
    C6       C        0.59240    0.60210    0.99180    1.000
    C7       C        0.56070    0.66640    0.07600    1.000
    C8       C        0.64110    0.57490    0.83940    1.000
    C9       C        0.56440    0.16600    0.49840    1.000
    C10      C        0.62450    0.27210    0.56180    1.000
    C11      C        0.61600    0.32780    0.65760    1.000
    C12      C        0.66940    0.42640    0.71380    1.000
    C13      C        0.73300    0.46650    0.67600    1.000
    C14      C        0.74260    0.41140    0.58160    1.000
    C15      C        0.68560    0.31500    0.52440    1.000
    C16      C        0.81160    0.45570    0.54160    1.000
    C17      C        0.98940    0.64610    0.81120    1.000
    C18      C        0.94750    0.66700    0.89900    1.000
    C19      C        0.92080    0.76330    0.95620    1.000
    C20      C        0.89110    0.78420    0.04060    1.000
    C21      C        0.88520    0.70850    0.06780    1.000
    C22      C        0.90760    0.61030    0.00820    1.000
    C23      C        0.93930    0.59040    0.92400    1.000
    C24      C        0.85890    0.73550    0.16060    1.000
    C25      C        0.93560    0.66760    0.50160    1.000
    C26      C        0.87550    0.71030    0.43820    1.000
    C27      C        0.88400    0.67020    0.34240    1.000
    C28      C        0.83060    0.71260    0.28620    1.000
    C29      C        0.76700    0.79050    0.32400    1.000
    C30      C        0.75740    0.82980    0.41840    1.000
    C31      C        0.81440    0.79060    0.47560    1.000
    C32      C        0.68840    0.91410    0.45840    1.000
    C33      C        0.48940    0.16510    0.81120    1.000
    C34      C        0.44750    0.23200    0.89900    1.000
    C35      C        0.42080    0.19290    0.95620    1.000
    C36      C        0.39110    0.25640    0.04060    1.000
    C37      C        0.38520    0.35930    0.06780    1.000
    C38      C        0.40760    0.39790    0.00820    1.000
    C39      C        0.43930    0.33360    0.92400    1.000
    C40      C        0.35890    0.42510    0.16060    1.000
    C41      C        0.43560    0.83400    0.50160    1.000
    C42      C        0.37550    0.72790    0.43820    1.000
    C43      C        0.38400    0.67220    0.34240    1.000
    C44      C        0.33060    0.57360    0.28620    1.000
    C45      C        0.26700    0.53350    0.32400    1.000
    C46      C        0.25740    0.58860    0.41840    1.000
    C47      C        0.31440    0.68500    0.47560    1.000
    C48      C        0.18840    0.54430    0.45840    1.000
    C49      C        0.01060    0.35390    0.18880    1.000
    C50      C        0.05250    0.33300    0.10100    1.000
    C51      C        0.07920    0.23670    0.04380    1.000
    C52      C        0.10890    0.21580    0.95940    1.000
    C53      C        0.11480    0.29150    0.93220    1.000
    C54      C        0.09240    0.38970    0.99180    1.000
    C55      C        0.06070    0.40960    0.07600    1.000
    C56      C        0.14110    0.26450    0.83940    1.000
    C57      C        0.06440    0.33240    0.49840    1.000
    C58      C        0.12450    0.28970    0.56180    1.000
    C59      C        0.11600    0.32980    0.65760    1.000
    C60      C        0.16940    0.28740    0.71380    1.000
    C61      C        0.23300    0.20950    0.67600    1.000
    C62      C        0.24260    0.17020    0.58160    1.000
    C63      C        0.18560    0.20940    0.52440    1.000
    C64      C        0.31160    0.08590    0.54160    1.000
    N1       N        0.65230    0.48066    0.80832    1.000
    N2       N        0.84770    0.67234    0.19168    1.000
    N3       N        0.34770    0.51934    0.19168    1.000
    N4       N        0.15230    0.32766    0.80832    1.000
    O1       O        0.47220    0.79512    0.23124    1.000
    O2       O        0.51500    0.92930    0.21460    1.000
    O3       O        0.54140    0.13224    0.40908    1.000
    O4       O        0.53870    0.11491    0.53742    1.000
    O5       O        0.81250    0.40359    0.45298    1.000
    O6       O        0.86610    0.54049    0.59738    1.000
    O7       O        0.02780    0.56388    0.76876    1.000
    O8       O        0.98500    0.71470    0.78540    1.000
    O9       O        0.95860    0.72316    0.59092    1.000
    O10      O        0.96130    0.57749    0.46258    1.000
    O11      O        0.68750    0.95061    0.54702    1.000
    O12      O        0.63390    0.94311    0.40262    1.000
    O13      O        0.52780    0.20488    0.76876    1.000
    O14      O        0.48500    0.07070    0.78540    1.000
    O15      O        0.45860    0.86776    0.59092    1.000
    O16      O        0.46130    0.88509    0.46258    1.000
    O17      O        0.18750    0.59641    0.54702    1.000
    O18      O        0.13390    0.45951    0.40262    1.000
    O19      O        0.97220    0.43612    0.23124    1.000
    O20      O        0.01500    0.28530    0.21460    1.000
    O21      O        0.04140    0.27684    0.40908    1.000
    O22      O        0.03870    0.42251    0.53742    1.000
    O23      O        0.31250    0.04939    0.45298    1.000
    O24      O        0.36610    0.05689    0.59738    1.000
