data_functionalizedCrystal
_audit_creation_method	'EQeq! by Chris Wilmer'
_symmetry_space_group_name_H-M	'P1'
_symmetry_Int_Tables_number	1
_symmetry_cell_setting	triclinic
loop_
_symmetry_equiv_pos_as_xyz
  x,y,z
_cell_length_a	16.2158
_cell_length_b	14.9024
_cell_length_c	7.9068
_cell_angle_alpha	90
_cell_angle_beta	91.826
_cell_angle_gamma	90
loop_
_atom_site_label
_atom_site_type_symbol
_atom_site_fract_x
_atom_site_fract_y
_atom_site_fract_z
_atom_site_charge
Mof_Ho	Ho	0.45498	0.38381	0.04996	2.017
Mof_Ag	Ag	0.02677	0.74033	0.39967	0.458
Mof_C 	C 	0.3677	0.5808	0.1378	0.413
Mof_C 	C 	0.2892	0.6236	0.1959	-0.215
Mof_C 	C 	0.2191	0.572	0.2036	-0.004
Mof_H 	H 	0.2199	0.5117	0.1732	0.026
Mof_C 	C 	0.1474	0.6114	0.2573	0.006
Mof_H 	H 	0.1002	0.5762	0.262	-0.007
Mof_C 	C 	0.2111	0.747	0.2936	0.003
Mof_H 	H 	0.2086	0.8072	0.3239	0.014
Mof_C 	C 	0.2852	0.7128	0.2412	-0.028
Mof_H 	H 	0.3315	0.7493	0.2366	-0.002
Mof_C 	C 	0.1336	0.1719	0.9595	0.025
Mof_H 	H 	0.1066	0.1176	0.9749	0.001
Mof_C 	C 	0.212	0.1707	0.8957	-0.016
Mof_H 	H 	0.2372	0.1166	0.8698	0.068
Mof_C 	C 	0.2521	0.251	0.8711	-0.103
Mof_C 	C 	0.3375	0.251	0.8017	0.488
Mof_C 	C 	0.2125	0.3295	0.9128	-0.013
Mof_H 	H 	0.2382	0.3846	0.8983	0.036
Mof_C 	C 	0.1343	0.3254	0.9762	0.019
Mof_H 	H 	0.108	0.3787	0.0034	-0.01
Mof_N 	N 	0.1427	0.6969	0.3026	-0.187
Mof_N 	N 	0.095	0.248	0.0001	-0.193
Mof_O 	O 	0.4242	0.6332	0.0928	-0.568
Mof_O 	O 	0.3699	0.4971	0.1384	-0.535
Mof_O 	O 	0.35906	0.18441	0.719	-0.531
Mof_O 	O 	0.38257	0.3188	0.8309	-0.505
Mof_O 	O 	0.54736	0.5035	0.1583	-0.422
Mof_O 	O 	0.5344	0.3847	0.3129	-0.412
Mof_C 	C 	0.5691	0.4589	0.2876	-0.19
Mof_C 	C 	0.645	0.4886	0.388	-1.319
Mof_H 	H 	0.6545	0.4486	0.4821	5.882
Mof_H 	H 	0.6368	0.5484	0.4297	1.974
Mof_H 	H 	0.6918	0.4877	0.3171	1.374
Mof_C 	C 	0.6256	0.4991	0.423	2.865
Mof_H 	H 	0.5956	0.5074	0.5247	-1.538
Mof_H 	H 	0.6457	0.556	0.3852	-2.4
Mof_H 	H 	0.6713	0.4594	0.4455	-6.466
Mof_Ho	Ho	0.54502	0.88381	0.45004	2.014
Mof_Ag	Ag	0.97323	0.24033	0.10033	0.46
Mof_C 	C 	0.6323	0.0808	0.3622	0.408
Mof_C 	C 	0.7108	0.1236	0.3041	-0.217
Mof_C 	C 	0.7809	0.072	0.2964	-0.003
Mof_H 	H 	0.7801	0.0117	0.3268	0.024
Mof_C 	C 	0.8526	0.1114	0.2427	0.007
Mof_H 	H 	0.8998	0.0762	0.238	-0.008
Mof_C 	C 	0.7889	0.247	0.2064	0.003
Mof_H 	H 	0.7914	0.3072	0.1761	0.014
Mof_C 	C 	0.7148	0.2128	0.2588	-0.029
Mof_H 	H 	0.6685	0.2493	0.2634	-0.002
Mof_C 	C 	0.8664	0.6719	0.5405	0.022
Mof_H 	H 	0.8934	0.6176	0.5251	0
Mof_C 	C 	0.788	0.6707	0.6043	-0.016
Mof_H 	H 	0.7628	0.6166	0.6302	0.066
Mof_C 	C 	0.7479	0.751	0.6289	-0.105
Mof_C 	C 	0.6625	0.751	0.6983	0.489
Mof_C 	C 	0.7875	0.8295	0.5872	-0.01
Mof_H 	H 	0.7618	0.8846	0.6017	0.036
Mof_C 	C 	0.8657	0.8254	0.5238	0.013
Mof_H 	H 	0.892	0.8787	0.4966	-0.006
Mof_N 	N 	0.8573	0.1969	0.1974	-0.187
Mof_N 	N 	0.905	0.748	0.4999	-0.191
Mof_O 	O 	0.5758	0.1332	0.4072	-0.567
Mof_O 	O 	0.6301	0.9971	0.3616	-0.533
Mof_O 	O 	0.64094	0.68441	0.781	-0.531
Mof_O 	O 	0.61743	0.8188	0.6691	-0.503
Mof_O 	O 	0.45264	0.0035	0.3417	-0.413
Mof_O 	O 	0.4656	0.8847	0.1871	-0.408
Mof_C 	C 	0.4309	0.9589	0.2124	-0.216
Mof_C 	C 	0.355	0.9886	0.112	-1.374
Mof_H 	H 	0.3455	0.9486	0.0179	6.116
Mof_H 	H 	0.3632	0.0484	0.0703	2.065
Mof_H 	H 	0.3082	0.9877	0.1829	1.428
Mof_C 	C 	0.3744	0.9991	0.077	2.991
Mof_H 	H 	0.4044	0.0074	0.9753	-1.603
Mof_H 	H 	0.3543	0.056	0.1148	-2.51
Mof_H 	H 	0.3287	0.9594	0.0545	-6.728
Mof_Ho	Ho	0.54502	0.61619	0.95004	2.016
Mof_Ag	Ag	0.97323	0.25967	0.60033	0.457
Mof_C 	C 	0.6323	0.4192	0.8622	0.413
Mof_C 	C 	0.7108	0.3764	0.8041	-0.215
Mof_C 	C 	0.7809	0.428	0.7964	-0.004
Mof_H 	H 	0.7801	0.4883	0.8268	0.026
Mof_C 	C 	0.8526	0.3886	0.7427	0.006
Mof_H 	H 	0.8998	0.4238	0.738	-0.007
Mof_C 	C 	0.7889	0.253	0.7064	0.003
Mof_H 	H 	0.7914	0.1928	0.6761	0.014
Mof_C 	C 	0.7148	0.2872	0.7588	-0.028
Mof_H 	H 	0.6685	0.2507	0.7634	-0.002
Mof_C 	C 	0.8664	0.8281	0.0405	0.025
Mof_H 	H 	0.8934	0.8824	0.0251	0.001
Mof_C 	C 	0.788	0.8293	0.1043	-0.016
Mof_H 	H 	0.7628	0.8834	0.1302	0.068
Mof_C 	C 	0.7479	0.749	0.1289	-0.103
Mof_C 	C 	0.6625	0.749	0.1983	0.488
Mof_C 	C 	0.7875	0.6705	0.0872	-0.013
Mof_H 	H 	0.7618	0.6154	0.1017	0.036
Mof_C 	C 	0.8657	0.6746	0.0238	0.019
Mof_H 	H 	0.892	0.6213	0.9966	-0.01
Mof_N 	N 	0.8573	0.3031	0.6974	-0.187
Mof_N 	N 	0.905	0.752	0.9999	-0.193
Mof_O 	O 	0.5758	0.3668	0.9072	-0.568
Mof_O 	O 	0.6301	0.5029	0.8616	-0.535
Mof_O 	O 	0.64094	0.81559	0.281	-0.531
Mof_O 	O 	0.61743	0.6812	0.1691	-0.505
Mof_O 	O 	0.45264	0.4965	0.8417	-0.422
Mof_O 	O 	0.4656	0.6153	0.6871	-0.412
Mof_C 	C 	0.4309	0.5411	0.7124	-0.19
Mof_C 	C 	0.355	0.5114	0.612	-1.319
Mof_H 	H 	0.3455	0.5514	0.5179	5.882
Mof_H 	H 	0.3632	0.4516	0.5703	1.974
Mof_H 	H 	0.3082	0.5123	0.6829	1.374
Mof_C 	C 	0.3744	0.5009	0.577	2.865
Mof_H 	H 	0.4044	0.4926	0.4753	-1.538
Mof_H 	H 	0.3543	0.444	0.6148	-2.4
Mof_H 	H 	0.3287	0.5406	0.5545	-6.466
Mof_Ho	Ho	0.45498	0.11619	0.54996	2.014
Mof_Ag	Ag	0.02677	0.75967	0.89967	0.46
Mof_C 	C 	0.3677	0.9192	0.6378	0.408
Mof_C 	C 	0.2892	0.8764	0.6959	-0.217
Mof_C 	C 	0.2191	0.928	0.7036	-0.003
Mof_H 	H 	0.2199	0.9883	0.6732	0.024
Mof_C 	C 	0.1474	0.8886	0.7573	0.007
Mof_H 	H 	0.1002	0.9238	0.762	-0.008
Mof_C 	C 	0.2111	0.753	0.7936	0.003
Mof_H 	H 	0.2086	0.6928	0.8239	0.014
Mof_C 	C 	0.2852	0.7872	0.7412	-0.029
Mof_H 	H 	0.3315	0.7507	0.7366	-0.002
Mof_C 	C 	0.1336	0.3281	0.4595	0.022
Mof_H 	H 	0.1066	0.3824	0.4749	0
Mof_C 	C 	0.212	0.3293	0.3957	-0.016
Mof_H 	H 	0.2372	0.3834	0.3698	0.066
Mof_C 	C 	0.2521	0.249	0.3711	-0.105
Mof_C 	C 	0.3375	0.249	0.3017	0.489
Mof_C 	C 	0.2125	0.1705	0.4128	-0.01
Mof_H 	H 	0.2382	0.1154	0.3983	0.036
Mof_C 	C 	0.1343	0.1746	0.4762	0.013
Mof_H 	H 	0.108	0.1213	0.5034	-0.006
Mof_N 	N 	0.1427	0.8031	0.8026	-0.187
Mof_N 	N 	0.095	0.252	0.5001	-0.191
Mof_O 	O 	0.4242	0.8668	0.5928	-0.567
Mof_O 	O 	0.3699	0.0029	0.6384	-0.533
Mof_O 	O 	0.35906	0.31559	0.219	-0.531
Mof_O 	O 	0.38257	0.1812	0.3309	-0.503
Mof_O 	O 	0.54736	0.9965	0.6583	-0.413
Mof_O 	O 	0.5344	0.1153	0.8129	-0.408
Mof_C 	C 	0.5691	0.0411	0.7876	-0.216
Mof_C 	C 	0.645	0.0114	0.888	-1.374
Mof_H 	H 	0.6545	0.0514	0.9821	6.116
Mof_H 	H 	0.6368	0.9516	0.9297	2.065
Mof_H 	H 	0.6918	0.0123	0.8171	1.428
Mof_C 	C 	0.6256	0.0009	0.923	2.991
Mof_H 	H 	0.5956	0.9926	0.0247	-1.603
Mof_H 	H 	0.6457	0.944	0.8852	-2.51
Mof_H 	H 	0.6713	0.0406	0.9455	-6.728
_end
