data_functionalizedCrystal
_audit_creation_method	'EQeq! by Chris Wilmer'
_symmetry_space_group_name_H-M	'P1'
_symmetry_Int_Tables_number	1
_symmetry_cell_setting	triclinic
loop_
_symmetry_equiv_pos_as_xyz
  x,y,z
_cell_length_a	20.1077
_cell_length_b	20.1077
_cell_length_c	20.234
_cell_angle_alpha	90
_cell_angle_beta	90
_cell_angle_gamma	120
loop_
_atom_site_label
_atom_site_type_symbol
_atom_site_fract_x
_atom_site_fract_y
_atom_site_fract_z
_atom_site_charge
Mof_N 	N 	0.2803	0.55563	0.09932	-0.115
Mof_N 	N 	0.273	0.55942	0.03213	-0.113
Mof_N 	N 	0.2325	0.4403	0.05854	-0.163
Mof_N 	N 	0.1795	0.3209	0.10817	-0.17
Mof_N 	N 	0.1268	0.2054	0.1644	-0.168
Mof_N 	N 	0.107	0.1819	0.2698	-0.097
Mof_N 	N 	0.0672	0.1135	0.23558	-0.126
Mof_C 	C 	0.2556	0.484	0.1144	0.11
Mof_H 	H 	0.254	0.4655	0.1569	0.01
Mof_C 	C 	0.2438	0.4901	0.0089	0.113
Mof_H 	H 	0.2324	0.4767	0.9647	0.001
Mof_C 	C 	0.2048	0.3599	0.0528	0.196
Mof_C 	C 	0.2062	0.3289	0.9922	-0.232
Mof_H 	H 	0.2244	0.3592	0.9545	0.119
Mof_C 	C 	0.1795	0.251	0.99	0.143
Mof_H 	H 	0.1788	0.2275	0.9503	-0.019
Mof_C 	C 	0.1535	0.208	0.0477	-0.235
Mof_H 	H 	0.1363	0.1556	0.048	0.11
Mof_C 	C 	0.1545	0.2462	0.104	0.194
Mof_C 	C 	0.0811	0.1293	0.1735	0.107
Mof_H 	H 	0.0621	0.0931	0.1396	-0.016
Mof_C 	C 	0.1408	0.2351	0.2254	0.108
Mof_H 	H 	0.1708	0.2871	0.2348	0.013
Mof_N 	N 	0.94697	0.88896	0.43265	-0.107
Mof_N 	N 	0.93967	0.89275	0.36546	-0.104
Mof_N 	N 	0.89917	0.77363	0.39187	-0.162
Mof_N 	N 	0.84617	0.65423	0.4415	-0.169
Mof_N 	N 	0.79347	0.53873	0.49773	-0.167
Mof_N 	N 	0.77367	0.51523	0.60313	-0.095
Mof_N 	N 	0.73387	0.44683	0.56891	-0.123
Mof_C 	C 	0.92227	0.81733	0.44773	0.113
Mof_H 	H 	0.92067	0.79883	0.49023	0.014
Mof_C 	C 	0.91047	0.82343	0.34223	0.117
Mof_H 	H 	0.89907	0.81003	0.29803	0.005
Mof_C 	C 	0.87147	0.69323	0.38613	0.201
Mof_C 	C 	0.87287	0.66223	0.32553	-0.233
Mof_H 	H 	0.89107	0.69253	0.28783	0.123
Mof_C 	C 	0.84617	0.58433	0.32333	0.148
Mof_H 	H 	0.84547	0.56083	0.28363	-0.017
Mof_C 	C 	0.82017	0.54133	0.38103	-0.235
Mof_H 	H 	0.80297	0.48893	0.38133	0.114
Mof_C 	C 	0.82117	0.57953	0.43733	0.198
Mof_C 	C 	0.74777	0.46263	0.50683	0.111
Mof_H 	H 	0.72877	0.42643	0.47293	-0.01
Mof_C 	C 	0.80747	0.56843	0.55873	0.111
Mof_H 	H 	0.83747	0.62043	0.56813	0.015
Mof_N 	N 	0.61363	0.2223	0.76599	-0.116
Mof_N 	N 	0.60633	0.22609	0.6988	-0.112
Mof_N 	N 	0.56583	0.10697	0.72521	-0.155
Mof_N 	N 	0.51283	0.98757	0.77484	-0.147
Mof_N 	N 	0.46013	0.87207	0.83107	-0.165
Mof_N 	N 	0.44033	0.84857	0.93647	-0.093
Mof_N 	N 	0.40053	0.78017	0.90225	-0.123
Mof_C 	C 	0.58893	0.15067	0.78107	0.107
Mof_H 	H 	0.58733	0.13217	0.82357	0.01
Mof_C 	C 	0.57713	0.15677	0.67557	0.11
Mof_H 	H 	0.56573	0.14337	0.63137	0.002
Mof_C 	C 	0.53813	0.02657	0.71947	0.141
Mof_C 	C 	0.53953	0.99557	0.65887	-0.138
Mof_H 	H 	0.55773	0.02587	0.62117	0.077
Mof_C 	C 	0.51283	0.91767	0.65667	0.088
Mof_H 	H 	0.51213	0.89417	0.61697	0.005
Mof_C 	C 	0.48683	0.87467	0.71437	-0.198
Mof_H 	H 	0.46963	0.82227	0.71467	0.101
Mof_C 	C 	0.48783	0.91287	0.77067	0.183
Mof_C 	C 	0.41443	0.79597	0.84017	0.11
Mof_H 	H 	0.39543	0.75977	0.80627	-0.01
Mof_C 	C 	0.47413	0.90177	0.89207	0.11
Mof_H 	H 	0.50413	0.95377	0.90147	0.018
Mof_N 	N 	0.44437	0.72467	0.09932	-0.116
Mof_N 	N 	0.44058	0.71358	0.03213	-0.113
Mof_N 	N 	0.5597	0.7922	0.05854	-0.162
Mof_N 	N 	0.6791	0.8586	0.10817	-0.169
Mof_N 	N 	0.7946	0.9214	0.1644	-0.167
Mof_N 	N 	0.8181	0.9251	0.2698	-0.092
Mof_N 	N 	0.8865	0.9537	0.23558	-0.115
Mof_C 	C 	0.516	0.7716	0.1144	0.112
Mof_H 	H 	0.5345	0.7885	0.1569	0.011
Mof_C 	C 	0.5099	0.7537	0.0089	0.115
Mof_H 	H 	0.5233	0.7557	0.9647	0.002
Mof_C 	C 	0.6401	0.8449	0.0528	0.199
Mof_C 	C 	0.6711	0.8773	0.9922	-0.232
Mof_H 	H 	0.6408	0.8652	0.9545	0.121
Mof_C 	C 	0.749	0.9285	0.99	0.148
Mof_H 	H 	0.7725	0.9513	0.9503	-0.015
Mof_C 	C 	0.792	0.9455	0.0477	-0.236
Mof_H 	H 	0.8444	0.9807	0.048	0.119
Mof_C 	C 	0.7538	0.9083	0.104	0.2
Mof_C 	C 	0.8707	0.9518	0.1735	0.113
Mof_H 	H 	0.9069	0.969	0.1396	-0.003
Mof_C 	C 	0.7649	0.9057	0.2254	0.113
Mof_H 	H 	0.7129	0.8837	0.2348	0.015
Mof_N 	N 	0.11104	0.058	0.43265	-0.119
Mof_N 	N 	0.10725	0.04691	0.36546	-0.116
Mof_N 	N 	0.22637	0.12553	0.39187	-0.163
Mof_N 	N 	0.34577	0.19193	0.4415	-0.17
Mof_N 	N 	0.46127	0.25473	0.49773	-0.168
Mof_N 	N 	0.48477	0.25843	0.60313	-0.096
Mof_N 	N 	0.55317	0.28703	0.56891	-0.124
Mof_C 	C 	0.18267	0.10493	0.44773	0.109
Mof_H 	H 	0.20117	0.12183	0.49023	0.01
Mof_C 	C 	0.17657	0.08703	0.34223	0.112
Mof_H 	H 	0.18997	0.08903	0.29803	-0
Mof_C 	C 	0.30677	0.17823	0.38613	0.197
Mof_C 	C 	0.33777	0.21063	0.32553	-0.232
Mof_H 	H 	0.30747	0.19853	0.28783	0.119
Mof_C 	C 	0.41567	0.26183	0.32333	0.145
Mof_H 	H 	0.43917	0.28463	0.28363	-0.018
Mof_C 	C 	0.45867	0.27883	0.38103	-0.235
Mof_H 	H 	0.51107	0.31403	0.38133	0.113
Mof_C 	C 	0.42047	0.24163	0.43733	0.196
Mof_C 	C 	0.53737	0.28513	0.50683	0.11
Mof_H 	H 	0.57357	0.30233	0.47293	-0.01
Mof_C 	C 	0.43157	0.23903	0.55873	0.11
Mof_H 	H 	0.37957	0.21703	0.56813	0.012
Mof_N 	N 	0.7777	0.39134	0.76599	-0.117
Mof_N 	N 	0.77391	0.38025	0.6988	-0.113
Mof_N 	N 	0.89303	0.45887	0.72521	-0.17
Mof_N 	N 	0.01243	0.52527	0.77484	-0.191
Mof_N 	N 	0.12793	0.58807	0.83107	-0.171
Mof_N 	N 	0.15143	0.59177	0.93647	-0.097
Mof_N 	N 	0.21983	0.62037	0.90225	-0.124
Mof_C 	C 	0.84933	0.43827	0.78107	0.115
Mof_H 	H 	0.86783	0.45517	0.82357	0.012
Mof_C 	C 	0.84323	0.42037	0.67557	0.118
Mof_H 	H 	0.85663	0.42237	0.63137	0.001
Mof_C 	C 	0.97343	0.51157	0.71947	0.255
Mof_C 	C 	0.00443	0.54397	0.65887	-0.326
Mof_H 	H 	0.97413	0.53187	0.62117	0.163
Mof_C 	C 	0.08233	0.59517	0.65667	0.203
Mof_H 	H 	0.10583	0.61797	0.61697	-0.04
Mof_C 	C 	0.12533	0.61217	0.71437	-0.272
Mof_H 	H 	0.17773	0.64737	0.71467	0.126
Mof_C 	C 	0.08713	0.57497	0.77067	0.21
Mof_C 	C 	0.20403	0.61847	0.84017	0.111
Mof_H 	H 	0.24023	0.63567	0.80627	-0.011
Mof_C 	C 	0.09823	0.57237	0.89207	0.11
Mof_H 	H 	0.04623	0.55037	0.90147	0.009
Mof_N 	N 	0.27533	0.7197	0.09932	-0.116
Mof_N 	N 	0.28642	0.727	0.03213	-0.113
Mof_N 	N 	0.2078	0.7675	0.05854	-0.162
Mof_N 	N 	0.1414	0.8205	0.10817	-0.169
Mof_N 	N 	0.0786	0.8732	0.1644	-0.167
Mof_N 	N 	0.0749	0.893	0.2698	-0.095
Mof_N 	N 	0.0463	0.9328	0.23558	-0.12
Mof_C 	C 	0.2284	0.7444	0.1144	0.111
Mof_H 	H 	0.2115	0.746	0.1569	0.01
Mof_C 	C 	0.2463	0.7562	0.0089	0.114
Mof_H 	H 	0.2443	0.7676	0.9647	0.003
Mof_C 	C 	0.1551	0.7952	0.0528	0.198
Mof_C 	C 	0.1227	0.7938	0.9922	-0.232
Mof_H 	H 	0.1348	0.7756	0.9545	0.12
Mof_C 	C 	0.0715	0.8205	0.99	0.146
Mof_H 	H 	0.0487	0.8212	0.9503	-0.02
Mof_C 	C 	0.0545	0.8465	0.0477	-0.235
Mof_H 	H 	0.0193	0.8637	0.048	0.112
Mof_C 	C 	0.0917	0.8455	0.104	0.197
Mof_C 	C 	0.0482	0.9189	0.1735	0.11
Mof_H 	H 	0.031	0.9379	0.1396	-0.009
Mof_C 	C 	0.0943	0.8592	0.2254	0.11
Mof_H 	H 	0.1163	0.8292	0.2348	0.013
Mof_N 	N 	0.942	0.05303	0.43265	-0.112
Mof_N 	N 	0.95309	0.06033	0.36546	-0.108
Mof_N 	N 	0.87447	0.10083	0.39187	-0.162
Mof_N 	N 	0.80807	0.15383	0.4415	-0.169
Mof_N 	N 	0.74527	0.20653	0.49773	-0.168
Mof_N 	N 	0.74157	0.22633	0.60313	-0.095
Mof_N 	N 	0.71297	0.26613	0.56891	-0.123
Mof_C 	C 	0.89507	0.07773	0.44773	0.111
Mof_H 	H 	0.87817	0.07933	0.49023	0.011
Mof_C 	C 	0.91297	0.08953	0.34223	0.114
Mof_H 	H 	0.91097	0.10093	0.29803	0.003
Mof_C 	C 	0.82177	0.12853	0.38613	0.197
Mof_C 	C 	0.78937	0.12713	0.32553	-0.233
Mof_H 	H 	0.80147	0.10893	0.28783	0.118
Mof_C 	C 	0.73817	0.15383	0.32333	0.145
Mof_H 	H 	0.71537	0.15453	0.28363	-0.019
Mof_C 	C 	0.72117	0.17983	0.38103	-0.235
Mof_H 	H 	0.68597	0.19703	0.38133	0.113
Mof_C 	C 	0.75837	0.17883	0.43733	0.196
Mof_C 	C 	0.71487	0.25223	0.50683	0.11
Mof_H 	H 	0.69767	0.27123	0.47293	-0.01
Mof_C 	C 	0.76097	0.19253	0.55873	0.111
Mof_H 	H 	0.78297	0.16253	0.56813	0.013
Mof_N 	N 	0.60866	0.38637	0.76599	-0.116
Mof_N 	N 	0.61975	0.39367	0.6988	-0.113
Mof_N 	N 	0.54113	0.43417	0.72521	-0.163
Mof_N 	N 	0.47473	0.48717	0.77484	-0.169
Mof_N 	N 	0.41193	0.53987	0.83107	-0.168
Mof_N 	N 	0.40823	0.55967	0.93647	-0.095
Mof_N 	N 	0.37963	0.59947	0.90225	-0.123
Mof_C 	C 	0.56173	0.41107	0.78107	0.111
Mof_H 	H 	0.54483	0.41267	0.82357	0.011
Mof_C 	C 	0.57963	0.42287	0.67557	0.114
Mof_H 	H 	0.57763	0.43427	0.63137	0.002
Mof_C 	C 	0.48843	0.46187	0.71947	0.198
Mof_C 	C 	0.45603	0.46047	0.65887	-0.232
Mof_H 	H 	0.46813	0.44227	0.62117	0.12
Mof_C 	C 	0.40483	0.48717	0.65667	0.145
Mof_H 	H 	0.38203	0.48787	0.61697	-0.018
Mof_C 	C 	0.38783	0.51317	0.71437	-0.235
Mof_H 	H 	0.35263	0.53037	0.71467	0.114
Mof_C 	C 	0.42503	0.51217	0.77067	0.197
Mof_C 	C 	0.38153	0.58557	0.84017	0.11
Mof_H 	H 	0.36433	0.60457	0.80627	-0.01
Mof_C 	C 	0.42763	0.52587	0.89207	0.11
Mof_H 	H 	0.44963	0.49587	0.90147	0.013
Mof_N 	N 	0.7197	0.44437	0.90068	-0.116
Mof_N 	N 	0.727	0.44058	0.96787	-0.113
Mof_N 	N 	0.7675	0.5597	0.94146	-0.162
Mof_N 	N 	0.8205	0.6791	0.89183	-0.169
Mof_N 	N 	0.8732	0.7946	0.8356	-0.167
Mof_N 	N 	0.893	0.8181	0.7302	-0.092
Mof_N 	N 	0.9328	0.8865	0.76442	-0.115
Mof_C 	C 	0.7444	0.516	0.8856	0.112
Mof_H 	H 	0.746	0.5345	0.8431	0.011
Mof_C 	C 	0.7562	0.5099	0.9911	0.115
Mof_H 	H 	0.7676	0.5233	0.0353	0.002
Mof_C 	C 	0.7952	0.6401	0.9472	0.2
Mof_C 	C 	0.7938	0.6711	0.0078	-0.232
Mof_H 	H 	0.7756	0.6408	0.0455	0.121
Mof_C 	C 	0.8205	0.749	0.01	0.148
Mof_H 	H 	0.8212	0.7725	0.0497	-0.017
Mof_C 	C 	0.8465	0.792	0.9523	-0.235
Mof_H 	H 	0.8637	0.8444	0.952	0.117
Mof_C 	C 	0.8455	0.7538	0.896	0.199
Mof_C 	C 	0.9189	0.8707	0.8265	0.113
Mof_H 	H 	0.9379	0.9069	0.8604	-0.003
Mof_C 	C 	0.8592	0.7649	0.7746	0.112
Mof_H 	H 	0.8292	0.7129	0.7652	0.014
Mof_N 	N 	0.38637	0.7777	0.23401	-0.117
Mof_N 	N 	0.39367	0.77391	0.3012	-0.113
Mof_N 	N 	0.43417	0.89303	0.27479	-0.171
Mof_N 	N 	0.48717	0.01243	0.22516	-0.191
Mof_N 	N 	0.53987	0.12793	0.16893	-0.171
Mof_N 	N 	0.55967	0.15143	0.06353	-0.097
Mof_N 	N 	0.59947	0.21983	0.09775	-0.124
Mof_C 	C 	0.41107	0.84933	0.21893	0.115
Mof_H 	H 	0.41267	0.86783	0.17643	0.012
Mof_C 	C 	0.42287	0.84323	0.32443	0.118
Mof_H 	H 	0.43427	0.85663	0.36863	0.001
Mof_C 	C 	0.46187	0.97343	0.28053	0.255
Mof_C 	C 	0.46047	0.00443	0.34113	-0.327
Mof_H 	H 	0.44227	0.97413	0.37883	0.163
Mof_C 	C 	0.48717	0.08233	0.34333	0.203
Mof_H 	H 	0.48787	0.10583	0.38303	-0.041
Mof_C 	C 	0.51317	0.12533	0.28563	-0.272
Mof_H 	H 	0.53037	0.17773	0.28533	0.126
Mof_C 	C 	0.51217	0.08713	0.22933	0.21
Mof_C 	C 	0.58557	0.20403	0.15983	0.111
Mof_H 	H 	0.60457	0.24023	0.19373	-0.011
Mof_C 	C 	0.52587	0.09823	0.10793	0.11
Mof_H 	H 	0.49587	0.04623	0.09853	0.009
Mof_N 	N 	0.05303	0.11104	0.56735	-0.119
Mof_N 	N 	0.06033	0.10725	0.63454	-0.115
Mof_N 	N 	0.10083	0.22637	0.60813	-0.163
Mof_N 	N 	0.15383	0.34577	0.5585	-0.17
Mof_N 	N 	0.20653	0.46127	0.50227	-0.168
Mof_N 	N 	0.22633	0.48477	0.39687	-0.096
Mof_N 	N 	0.26613	0.55317	0.43109	-0.123
Mof_C 	C 	0.07773	0.18267	0.55227	0.108
Mof_H 	H 	0.07933	0.20117	0.50977	0.009
Mof_C 	C 	0.08953	0.17657	0.65777	0.112
Mof_H 	H 	0.10093	0.18997	0.70197	0
Mof_C 	C 	0.12853	0.30677	0.61387	0.196
Mof_C 	C 	0.12713	0.33777	0.67447	-0.232
Mof_H 	H 	0.10893	0.30747	0.71217	0.117
Mof_C 	C 	0.15383	0.41567	0.67667	0.143
Mof_H 	H 	0.15453	0.43917	0.71637	-0.019
Mof_C 	C 	0.17983	0.45867	0.61897	-0.235
Mof_H 	H 	0.19703	0.51107	0.61867	0.113
Mof_C 	C 	0.17883	0.42047	0.56267	0.195
Mof_C 	C 	0.25223	0.53737	0.49317	0.11
Mof_H 	H 	0.27123	0.57357	0.52707	-0.01
Mof_C 	C 	0.19253	0.43157	0.44127	0.11
Mof_H 	H 	0.16253	0.37957	0.43187	0.012
Mof_N 	N 	0.55563	0.27533	0.90068	-0.116
Mof_N 	N 	0.55942	0.28642	0.96787	-0.113
Mof_N 	N 	0.4403	0.2078	0.94146	-0.163
Mof_N 	N 	0.3209	0.1414	0.89183	-0.17
Mof_N 	N 	0.2054	0.0786	0.8356	-0.168
Mof_N 	N 	0.1819	0.0749	0.7302	-0.097
Mof_N 	N 	0.1135	0.0463	0.76442	-0.126
Mof_C 	C 	0.484	0.2284	0.8856	0.11
Mof_H 	H 	0.4655	0.2115	0.8431	0.01
Mof_C 	C 	0.4901	0.2463	0.9911	0.114
Mof_H 	H 	0.4767	0.2443	0.0353	0.002
Mof_C 	C 	0.3599	0.1551	0.9472	0.196
Mof_C 	C 	0.3289	0.1227	0.0078	-0.232
Mof_H 	H 	0.3592	0.1348	0.0455	0.119
Mof_C 	C 	0.251	0.0715	0.01	0.143
Mof_H 	H 	0.2275	0.0487	0.0497	-0.021
Mof_C 	C 	0.208	0.0545	0.9523	-0.235
Mof_H 	H 	0.1556	0.0193	0.952	0.108
Mof_C 	C 	0.2462	0.0917	0.896	0.193
Mof_C 	C 	0.1293	0.0482	0.8265	0.107
Mof_H 	H 	0.0931	0.031	0.8604	-0.016
Mof_C 	C 	0.2351	0.0943	0.7746	0.108
Mof_H 	H 	0.2871	0.1163	0.7652	0.012
Mof_N 	N 	0.2223	0.60866	0.23401	-0.116
Mof_N 	N 	0.22609	0.61975	0.3012	-0.112
Mof_N 	N 	0.10697	0.54113	0.27479	-0.155
Mof_N 	N 	0.98757	0.47473	0.22516	-0.147
Mof_N 	N 	0.87207	0.41193	0.16893	-0.164
Mof_N 	N 	0.84857	0.40823	0.06353	-0.093
Mof_N 	N 	0.78017	0.37963	0.09775	-0.123
Mof_C 	C 	0.15067	0.56173	0.21893	0.107
Mof_H 	H 	0.13217	0.54483	0.17643	0.01
Mof_C 	C 	0.15677	0.57963	0.32443	0.11
Mof_H 	H 	0.14337	0.57763	0.36863	0.002
Mof_C 	C 	0.02657	0.48843	0.28053	0.14
Mof_C 	C 	0.99557	0.45603	0.34113	-0.136
Mof_H 	H 	0.02587	0.46813	0.37883	0.076
Mof_C 	C 	0.91767	0.40483	0.34333	0.087
Mof_H 	H 	0.89417	0.38203	0.38303	0.005
Mof_C 	C 	0.87467	0.38783	0.28563	-0.198
Mof_H 	H 	0.82227	0.35263	0.28533	0.101
Mof_C 	C 	0.91287	0.42503	0.22933	0.183
Mof_C 	C 	0.79597	0.38153	0.15983	0.11
Mof_H 	H 	0.75977	0.36433	0.19373	-0.01
Mof_C 	C 	0.90177	0.42763	0.10793	0.11
Mof_H 	H 	0.95377	0.44963	0.09853	0.018
Mof_N 	N 	0.88896	0.942	0.56735	-0.107
Mof_N 	N 	0.89275	0.95309	0.63454	-0.103
Mof_N 	N 	0.77363	0.87447	0.60813	-0.162
Mof_N 	N 	0.65423	0.80807	0.5585	-0.169
Mof_N 	N 	0.53873	0.74527	0.50227	-0.168
Mof_N 	N 	0.51523	0.74157	0.39687	-0.095
Mof_N 	N 	0.44683	0.71297	0.43109	-0.123
Mof_C 	C 	0.81733	0.89507	0.55227	0.113
Mof_H 	H 	0.79883	0.87817	0.50977	0.013
Mof_C 	C 	0.82343	0.91297	0.65777	0.116
Mof_H 	H 	0.81003	0.91097	0.70197	0.005
Mof_C 	C 	0.69323	0.82177	0.61387	0.2
Mof_C 	C 	0.66223	0.78937	0.67447	-0.233
Mof_H 	H 	0.69253	0.80147	0.71217	0.121
Mof_C 	C 	0.58433	0.73817	0.67667	0.147
Mof_H 	H 	0.56083	0.71537	0.71637	-0.018
Mof_C 	C 	0.54133	0.72117	0.61897	-0.236
Mof_H 	H 	0.48893	0.68597	0.61867	0.114
Mof_C 	C 	0.57953	0.75837	0.56267	0.197
Mof_C 	C 	0.46263	0.71487	0.49317	0.111
Mof_H 	H 	0.42643	0.69767	0.52707	-0.01
Mof_C 	C 	0.56843	0.76097	0.44127	0.111
Mof_H 	H 	0.62043	0.78297	0.43187	0.014
Mof_N 	N 	0.72467	0.2803	0.90068	-0.116
Mof_N 	N 	0.71358	0.273	0.96787	-0.113
Mof_N 	N 	0.7922	0.2325	0.94146	-0.163
Mof_N 	N 	0.8586	0.1795	0.89183	-0.17
Mof_N 	N 	0.9214	0.1268	0.8356	-0.168
Mof_N 	N 	0.9251	0.107	0.7302	-0.094
Mof_N 	N 	0.9537	0.0672	0.76442	-0.12
Mof_C 	C 	0.7716	0.2556	0.8856	0.111
Mof_H 	H 	0.7885	0.254	0.8431	0.011
Mof_C 	C 	0.7537	0.2438	0.9911	0.113
Mof_H 	H 	0.7557	0.2324	0.0353	0.001
Mof_C 	C 	0.8449	0.2048	0.9472	0.198
Mof_C 	C 	0.8773	0.2062	0.0078	-0.232
Mof_H 	H 	0.8652	0.2244	0.0455	0.121
Mof_C 	C 	0.9285	0.1795	0.01	0.146
Mof_H 	H 	0.9513	0.1788	0.0497	-0.016
Mof_C 	C 	0.9455	0.1535	0.9523	-0.236
Mof_H 	H 	0.9807	0.1363	0.952	0.117
Mof_C 	C 	0.9083	0.1545	0.896	0.197
Mof_C 	C 	0.9518	0.0811	0.8265	0.11
Mof_H 	H 	0.969	0.0621	0.8604	-0.009
Mof_C 	C 	0.9057	0.1408	0.7746	0.111
Mof_H 	H 	0.8837	0.1708	0.7652	0.014
Mof_N 	N 	0.39134	0.61363	0.23401	-0.116
Mof_N 	N 	0.38025	0.60633	0.3012	-0.113
Mof_N 	N 	0.45887	0.56583	0.27479	-0.163
Mof_N 	N 	0.52527	0.51283	0.22516	-0.169
Mof_N 	N 	0.58807	0.46013	0.16893	-0.168
Mof_N 	N 	0.59177	0.44033	0.06353	-0.095
Mof_N 	N 	0.62037	0.40053	0.09775	-0.123
Mof_C 	C 	0.43827	0.58893	0.21893	0.111
Mof_H 	H 	0.45517	0.58733	0.17643	0.011
Mof_C 	C 	0.42037	0.57713	0.32443	0.114
Mof_H 	H 	0.42237	0.56573	0.36863	0.002
Mof_C 	C 	0.51157	0.53813	0.28053	0.198
Mof_C 	C 	0.54397	0.53953	0.34113	-0.232
Mof_H 	H 	0.53187	0.55773	0.37883	0.12
Mof_C 	C 	0.59517	0.51283	0.34333	0.146
Mof_H 	H 	0.61797	0.51213	0.38303	-0.018
Mof_C 	C 	0.61217	0.48683	0.28563	-0.235
Mof_H 	H 	0.64737	0.46963	0.28533	0.114
Mof_C 	C 	0.57497	0.48783	0.22933	0.197
Mof_C 	C 	0.61847	0.41443	0.15983	0.11
Mof_H 	H 	0.63567	0.39543	0.19373	-0.01
Mof_C 	C 	0.57237	0.47413	0.10793	0.11
Mof_H 	H 	0.55037	0.50413	0.09853	0.013
Mof_N 	N 	0.058	0.94697	0.56735	-0.112
Mof_N 	N 	0.04691	0.93967	0.63454	-0.109
Mof_N 	N 	0.12553	0.89917	0.60813	-0.162
Mof_N 	N 	0.19193	0.84617	0.5585	-0.17
Mof_N 	N 	0.25473	0.79347	0.50227	-0.168
Mof_N 	N 	0.25843	0.77367	0.39687	-0.095
Mof_N 	N 	0.28703	0.73387	0.43109	-0.124
Mof_C 	C 	0.10493	0.92227	0.55227	0.111
Mof_H 	H 	0.12183	0.92067	0.50977	0.013
Mof_C 	C 	0.08703	0.91047	0.65777	0.115
Mof_H 	H 	0.08903	0.89907	0.70197	0.003
Mof_C 	C 	0.17823	0.87147	0.61387	0.199
Mof_C 	C 	0.21063	0.87287	0.67447	-0.232
Mof_H 	H 	0.19853	0.89107	0.71217	0.122
Mof_C 	C 	0.26183	0.84617	0.67667	0.147
Mof_H 	H 	0.28463	0.84547	0.71637	-0.017
Mof_C 	C 	0.27883	0.82017	0.61897	-0.235
Mof_H 	H 	0.31403	0.80297	0.61867	0.114
Mof_C 	C 	0.24163	0.82117	0.56267	0.197
Mof_C 	C 	0.28513	0.74777	0.49317	0.11
Mof_H 	H 	0.30233	0.72877	0.52707	-0.01
Mof_C 	C 	0.23903	0.80747	0.44127	0.11
Mof_H 	H 	0.21703	0.83747	0.43187	0.014
Mof_Cd	Cd	0.33333	0.66667	0.16667	0.392
Mof_Cd	Cd	-3.56298e-33	0	0.5	0.362
Mof_Cd	Cd	0.66667	0.33333	0.83333	0.392
Mof_Cd	Cd	0.33333	0.66667	0.96184	0.397
Mof_Cd	Cd	-0	0	0.29517	0.367
Mof_Cd	Cd	0.66667	0.33333	0.62851	0.397
Mof_Cd	Cd	0.66667	0.33333	0.03816	0.397
Mof_Cd	Cd	0.33333	0.66667	0.37149	0.397
Mof_Cd	Cd	-0	0	0.70483	0.366
_end
