data_functionalizedCrystal
_audit_creation_method	'EQeq! by Chris Wilmer'
_symmetry_space_group_name_H-M	'P1'
_symmetry_Int_Tables_number	1
_symmetry_cell_setting	triclinic
loop_
_symmetry_equiv_pos_as_xyz
  x,y,z
_cell_length_a	3.8083
_cell_length_b	12.476
_cell_length_c	13.09
_cell_angle_alpha	76.757
_cell_angle_beta	84.649
_cell_angle_gamma	86.809
loop_
_atom_site_label
_atom_site_type_symbol
_atom_site_fract_x
_atom_site_fract_y
_atom_site_fract_z
_atom_site_charge
Mof_Ag	Ag	0.16161	0.91878	0.59541	0.619
Mof_O 	O 	0.3979	0.9512	0.4133	-0.442
Mof_O 	O 	0.3348	0.7718	0.4707	-0.308
Mof_N 	N 	0.9267	0.0076	0.0425	-0.091
Mof_N 	N 	0.885	0.7875	0.7178	-0.216
Mof_C 	C 	0.6371	0.8351	0.3018	-0.05
Mof_C 	C 	0.6979	0.9243	0.2167	-0.083
Mof_H 	H 	0.6155	0.9945	0.2223	0.048
Mof_C 	C 	0.8801	0.9094	0.1239	0.104
Mof_C 	C 	0.0095	0.8046	0.1156	-0.112
Mof_H 	H 	0.1363	0.7944	0.0541	0.077
Mof_C 	C 	0.9479	0.7171	0.1987	-0.001
Mof_H 	H 	0.0315	0.647	0.1929	0.027
Mof_C 	C 	0.7615	0.7309	0.2922	-0.045
Mof_H 	H 	0.7208	0.6704	0.3479	0.059
Mof_C 	C 	0.4432	0.8519	0.4025	0.313
Mof_C 	C 	0.8553	0.7866	0.8214	0.102
Mof_H 	H 	0.9248	0.8482	0.842	-0.013
Mof_C 	C 	0.7287	0.7003	0.8979	-0.182
Mof_H 	H 	0.7118	0.7045	0.9683	0.093
Mof_C 	C 	0.6251	0.6059	0.8703	0.123
Mof_C 	C 	0.6487	0.6075	0.7634	-0.179
Mof_H 	H 	0.5762	0.5477	0.7405	0.093
Mof_C 	C 	0.7809	0.6986	0.691	0.096
Mof_H 	H 	0.7974	0.6973	0.62	-0.003
Mof_C 	C 	0.4966	0.5087	0.9484	-0.09
Mof_H 	H 	0.4012	0.4542	0.9226	0.06
Mof_Ag	Ag	0.83839	0.08122	0.40459	0.62
Mof_O 	O 	0.6021	0.0488	0.5867	-0.441
Mof_O 	O 	0.6652	0.2282	0.5293	-0.308
Mof_N 	N 	0.0733	0.9924	0.9575	-0.091
Mof_N 	N 	0.115	0.2125	0.2822	-0.216
Mof_C 	C 	0.3629	0.1649	0.6982	-0.05
Mof_C 	C 	0.3021	0.0757	0.7833	-0.083
Mof_H 	H 	0.3845	0.0055	0.7777	0.048
Mof_C 	C 	0.1199	0.0906	0.8761	0.104
Mof_C 	C 	0.9905	0.1954	0.8844	-0.112
Mof_H 	H 	0.8637	0.2056	0.9459	0.077
Mof_C 	C 	0.0521	0.2829	0.8013	-0.001
Mof_H 	H 	0.9685	0.353	0.8071	0.027
Mof_C 	C 	0.2385	0.2691	0.7078	-0.045
Mof_H 	H 	0.2792	0.3296	0.6521	0.059
Mof_C 	C 	0.5568	0.1481	0.5975	0.313
Mof_C 	C 	0.1447	0.2134	0.1786	0.102
Mof_H 	H 	0.0752	0.1518	0.158	-0.013
Mof_C 	C 	0.2713	0.2997	0.1021	-0.182
Mof_H 	H 	0.2882	0.2955	0.0317	0.093
Mof_C 	C 	0.3749	0.3941	0.1297	0.123
Mof_C 	C 	0.3513	0.3925	0.2366	-0.179
Mof_H 	H 	0.4238	0.4523	0.2595	0.093
Mof_C 	C 	0.2191	0.3014	0.309	0.096
Mof_H 	H 	0.2026	0.3027	0.38	-0.003
Mof_C 	C 	0.5034	0.4913	0.0516	-0.09
Mof_H 	H 	0.5988	0.5458	0.0774	0.06
_end
