data_functionalizedCrystal
_audit_creation_method	'EQeq! by Chris Wilmer'
_symmetry_space_group_name_H-M	'P1'
_symmetry_Int_Tables_number	1
_symmetry_cell_setting	triclinic
loop_
_symmetry_equiv_pos_as_xyz
  x,y,z
_cell_length_a	10.2402
_cell_length_b	9.5023
_cell_length_c	15.2912
_cell_angle_alpha	90
_cell_angle_beta	98.328
_cell_angle_gamma	90
loop_
_atom_site_label
_atom_site_type_symbol
_atom_site_fract_x
_atom_site_fract_y
_atom_site_fract_z
_atom_site_charge
Mof_O 	O 	0.835	0.073	0.5734	-1.697
Mof_O 	O 	0.6732	0.8774	0.4843	-1.758
Mof_O 	O 	0.0348	0.1657	0.5698	-1.138
Mof_N 	N 	0.8801	0.4308	0.8184	-0.582
Mof_C 	C 	0.928	0.1579	0.5994	0.892
Mof_O 	O 	0.4642	0.8119	0.4447	-1.401
Mof_N 	N 	0.7072	0.3634	0.4156	-0.214
Mof_C 	C 	0.908	0.2564	0.6737	-0.395
Mof_C 	C 	0.6293	0.6387	0.4442	-0.38
Mof_C 	C 	0.7866	0.3387	0.7863	-0.069
Mof_H 	H 	0.7094	0.3329	0.8139	-0.106
Mof_C 	C 	0.7961	0.2518	0.7155	0.181
Mof_H 	H 	0.7262	0.1888	0.6951	-0.223
Mof_C 	C 	0.006	0.352	0.7069	0.063
Mof_H 	H 	0.0848	0.3589	0.6812	-0.063
Mof_C 	C 	0.5401	0.5404	0.4019	0.093
Mof_H 	H 	0.451	0.5662	0.3823	-0.04
Mof_C 	C 	0.5845	0.7879	0.4586	0.982
Mof_C 	C 	0.7576	0.595	0.4722	0.127
Mof_H 	H 	0.8211	0.6581	0.5018	-0.102
Mof_C 	C 	0.791	0.4572	0.456	-0.074
Mof_H 	H 	0.8793	0.4282	0.4749	-0.015
Mof_C 	C 	0.9876	0.4366	0.7776	-0.004
Mof_H 	H 	0.0547	0.5024	0.7984	-0.166
Mof_C 	C 	0.5831	0.4057	0.389	-0.061
Mof_H 	H 	0.5218	0.3398	0.3599	-0.044
Mof_Li	Li	0.6491	0.032	0.5649	3.667
Mof_Li	Li	0.8386	0.9613	0.4647	2.519
Mof_O 	O 	0.665	0.573	0.9266	-1.692
Mof_O 	O 	0.8268	0.3774	0.0157	-1.754
Mof_O 	O 	0.4652	0.6657	0.9302	-1.136
Mof_N 	N 	0.6199	0.9308	0.6816	-0.583
Mof_C 	C 	0.572	0.6579	0.9006	0.893
Mof_O 	O 	0.0358	0.3119	0.0553	-1.4
Mof_N 	N 	0.7928	0.8634	0.0844	-0.212
Mof_C 	C 	0.592	0.7564	0.8263	-0.388
Mof_C 	C 	0.8707	0.1387	0.0558	-0.382
Mof_C 	C 	0.7134	0.8387	0.7137	-0.065
Mof_H 	H 	0.7906	0.8329	0.6861	-0.106
Mof_C 	C 	0.7039	0.7518	0.7845	0.177
Mof_H 	H 	0.7738	0.6888	0.8049	-0.221
Mof_C 	C 	0.494	0.852	0.7931	0.055
Mof_H 	H 	0.4152	0.8589	0.8188	-0.059
Mof_C 	C 	0.9599	0.0404	0.0981	0.091
Mof_H 	H 	0.049	0.0662	0.1177	-0.037
Mof_C 	C 	0.9155	0.2879	0.0414	0.982
Mof_C 	C 	0.7424	0.095	0.0278	0.138
Mof_H 	H 	0.6789	0.1581	0.9982	-0.107
Mof_C 	C 	0.709	0.9572	0.044	-0.079
Mof_H 	H 	0.6207	0.9282	0.0251	-0.013
Mof_C 	C 	0.5124	0.9366	0.7224	0.009
Mof_H 	H 	0.4453	0.0024	0.7016	-0.171
Mof_C 	C 	0.9169	0.9057	0.111	-0.059
Mof_H 	H 	0.9782	0.8398	0.1401	-0.044
Mof_Li	Li	0.8509	0.532	0.9351	3.659
Mof_Li	Li	0.6614	0.4613	0.0353	2.511
Mof_O 	O 	0.165	0.927	0.4266	-1.696
Mof_O 	O 	0.3268	0.1226	0.5157	-1.757
Mof_O 	O 	0.9652	0.8343	0.4302	-1.138
Mof_N 	N 	0.1199	0.5692	0.1816	-0.582
Mof_C 	C 	0.072	0.8421	0.4006	0.892
Mof_O 	O 	0.5358	0.1881	0.5553	-1.401
Mof_N 	N 	0.2928	0.6366	0.5844	-0.214
Mof_C 	C 	0.092	0.7436	0.3263	-0.395
Mof_C 	C 	0.3707	0.3613	0.5558	-0.38
Mof_C 	C 	0.2134	0.6613	0.2137	-0.069
Mof_H 	H 	0.2906	0.6671	0.1861	-0.106
Mof_C 	C 	0.2039	0.7482	0.2845	0.181
Mof_H 	H 	0.2738	0.8112	0.3049	-0.223
Mof_C 	C 	0.994	0.648	0.2931	0.063
Mof_H 	H 	0.9152	0.6411	0.3188	-0.063
Mof_C 	C 	0.4599	0.4596	0.5981	0.093
Mof_H 	H 	0.549	0.4338	0.6177	-0.04
Mof_C 	C 	0.4155	0.2121	0.5414	0.982
Mof_C 	C 	0.2424	0.405	0.5278	0.127
Mof_H 	H 	0.1789	0.3419	0.4982	-0.102
Mof_C 	C 	0.209	0.5428	0.544	-0.074
Mof_H 	H 	0.1207	0.5718	0.5251	-0.015
Mof_C 	C 	0.0124	0.5634	0.2224	-0.004
Mof_H 	H 	0.9453	0.4976	0.2016	-0.166
Mof_C 	C 	0.4169	0.5943	0.611	-0.061
Mof_H 	H 	0.4782	0.6602	0.6401	-0.044
Mof_Li	Li	0.3509	0.968	0.4351	3.667
Mof_Li	Li	0.1614	0.0387	0.5353	2.519
Mof_O 	O 	0.335	0.427	0.0734	-1.692
Mof_O 	O 	0.1732	0.6226	0.9843	-1.754
Mof_O 	O 	0.5348	0.3343	0.0698	-1.136
Mof_N 	N 	0.3801	0.0692	0.3184	-0.583
Mof_C 	C 	0.428	0.3421	0.0994	0.893
Mof_O 	O 	0.9642	0.6881	0.9447	-1.4
Mof_N 	N 	0.2072	0.1366	0.9156	-0.212
Mof_C 	C 	0.408	0.2436	0.1737	-0.388
Mof_C 	C 	0.1293	0.8613	0.9442	-0.382
Mof_C 	C 	0.2866	0.1613	0.2863	-0.065
Mof_H 	H 	0.2094	0.1671	0.3139	-0.106
Mof_C 	C 	0.2961	0.2482	0.2155	0.177
Mof_H 	H 	0.2262	0.3112	0.1951	-0.221
Mof_C 	C 	0.506	0.148	0.2069	0.055
Mof_H 	H 	0.5848	0.1411	0.1812	-0.059
Mof_C 	C 	0.0401	0.9596	0.9019	0.091
Mof_H 	H 	0.951	0.9338	0.8823	-0.037
Mof_C 	C 	0.0845	0.7121	0.9586	0.982
Mof_C 	C 	0.2576	0.905	0.9722	0.138
Mof_H 	H 	0.3211	0.8419	0.0018	-0.107
Mof_C 	C 	0.291	0.0428	0.956	-0.079
Mof_H 	H 	0.3793	0.0718	0.9749	-0.013
Mof_C 	C 	0.4876	0.0634	0.2776	0.009
Mof_H 	H 	0.5547	0.9976	0.2984	-0.171
Mof_C 	C 	0.0831	0.0943	0.889	-0.059
Mof_H 	H 	0.0218	0.1602	0.8599	-0.044
Mof_Li	Li	0.1491	0.468	0.0649	3.659
Mof_Li	Li	0.3386	0.5387	0.9647	2.511
_end
