data_functionalizedCrystal
_audit_creation_method	'EQeq! by Chris Wilmer'
_symmetry_space_group_name_H-M	'P1'
_symmetry_Int_Tables_number	1
_symmetry_cell_setting	triclinic
loop_
_symmetry_equiv_pos_as_xyz
  x,y,z
_cell_length_a	19.9132
_cell_length_b	19.9132
_cell_length_c	25.0517
_cell_angle_alpha	90
_cell_angle_beta	90
_cell_angle_gamma	90
loop_
_atom_site_label
_atom_site_type_symbol
_atom_site_fract_x
_atom_site_fract_y
_atom_site_fract_z
_atom_site_charge
Mof_O 	O 	0.038	0.5755	0.3289	-0.328
Mof_C 	C 	0.0317	0.8133	0.309	-0.219
Mof_O 	O 	0.9699	0.4308	0.2073	-0.515
Mof_O 	O 	0.0219	0.3655	0.2663	-0.322
Mof_O 	O 	0.1649	0.724	0.4482	-0.308
Mof_O 	O 	0.9828	0.6188	0.2593	-0.505
Mof_C 	C 	0.0354	0.6931	0.3197	-0.199
Mof_C 	C 	0.071	0.8217	0.3533	0.139
Mof_H 	H 	0.0831	0.8645	0.3646	-0.035
Mof_C 	C 	0.0181	0.6238	0.302	0.433
Mof_C 	C 	0.0749	0.7012	0.3658	0.117
Mof_H 	H 	0.0886	0.664	0.3852	0.018
Mof_C 	C 	0.014	0.7496	0.2921	0.142
Mof_H 	H 	0.9873	0.7446	0.2619	-0.018
Mof_C 	C 	0.1407	0.7714	0.4265	0.379
Mof_C 	C 	0.9891	0.3738	0.2227	0.425
Mof_C 	C 	0.093	0.7646	0.3817	-0.188
Mof_O 	O 	0.1553	0.8293	0.4419	-0.285
Mof_O 	O 	0.462	0.9245	0.3289	-0.328
Mof_C 	C 	0.4683	0.6867	0.309	-0.217
Mof_O 	O 	0.5301	0.0692	0.2073	-0.515
Mof_O 	O 	0.4781	0.1345	0.2663	-0.321
Mof_O 	O 	0.3351	0.776	0.4482	-0.308
Mof_O 	O 	0.5172	0.8812	0.2593	-0.505
Mof_C 	C 	0.4646	0.8069	0.3197	-0.197
Mof_C 	C 	0.429	0.6783	0.3533	0.137
Mof_H 	H 	0.4169	0.6355	0.3646	-0.035
Mof_C 	C 	0.4819	0.8762	0.302	0.431
Mof_C 	C 	0.4251	0.7988	0.3658	0.115
Mof_H 	H 	0.4114	0.836	0.3852	0.019
Mof_C 	C 	0.486	0.7504	0.2921	0.138
Mof_H 	H 	0.5127	0.7554	0.2619	-0.016
Mof_C 	C 	0.3593	0.7286	0.4265	0.378
Mof_C 	C 	0.5109	0.1262	0.2227	0.424
Mof_C 	C 	0.407	0.7354	0.3817	-0.187
Mof_O 	O 	0.3447	0.6707	0.4419	-0.285
Mof_O 	O 	0.9245	0.038	0.8289	-0.326
Mof_C 	C 	0.6867	0.0317	0.809	-0.215
Mof_O 	O 	0.0692	0.9699	0.7073	-0.515
Mof_O 	O 	0.1345	0.0219	0.7663	-0.323
Mof_O 	O 	0.776	0.1649	0.9482	-0.297
Mof_O 	O 	0.8812	0.9828	0.7593	-0.505
Mof_C 	C 	0.8069	0.0354	0.8197	-0.195
Mof_C 	C 	0.6783	0.071	0.8533	0.136
Mof_H 	H 	0.6355	0.0831	0.8646	-0.033
Mof_C 	C 	0.8762	0.0181	0.802	0.432
Mof_C 	C 	0.7988	0.0749	0.8658	0.114
Mof_H 	H 	0.836	0.0886	0.8852	0.022
Mof_C 	C 	0.7504	0.014	0.7921	0.138
Mof_H 	H 	0.7554	0.9873	0.7619	-0.016
Mof_C 	C 	0.7286	0.1407	0.9265	0.375
Mof_C 	C 	0.1262	0.9891	0.7227	0.428
Mof_C 	C 	0.7354	0.093	0.8817	-0.183
Mof_O 	O 	0.6707	0.1553	0.9419	-0.277
Mof_O 	O 	0.5755	0.462	0.8289	-0.327
Mof_C 	C 	0.8133	0.4683	0.809	-0.215
Mof_O 	O 	0.4308	0.5301	0.7073	-0.515
Mof_O 	O 	0.3655	0.4781	0.7663	-0.32
Mof_O 	O 	0.724	0.3351	0.9482	-0.297
Mof_O 	O 	0.6188	0.5172	0.7593	-0.505
Mof_C 	C 	0.6931	0.4646	0.8197	-0.194
Mof_C 	C 	0.8217	0.429	0.8533	0.135
Mof_H 	H 	0.8645	0.4169	0.8646	-0.033
Mof_C 	C 	0.6238	0.4819	0.802	0.431
Mof_C 	C 	0.7012	0.4251	0.8658	0.113
Mof_H 	H 	0.664	0.4114	0.8852	0.021
Mof_C 	C 	0.7496	0.486	0.7921	0.136
Mof_H 	H 	0.7446	0.5127	0.7619	-0.015
Mof_C 	C 	0.7714	0.3593	0.9265	0.375
Mof_C 	C 	0.3738	0.5109	0.7227	0.424
Mof_C 	C 	0.7646	0.407	0.8817	-0.182
Mof_O 	O 	0.8293	0.3447	0.9419	-0.276
Mof_O 	O 	0.962	0.0755	0.1711	-0.329
Mof_C 	C 	0.9683	0.3133	0.191	-0.22
Mof_O 	O 	0.0301	0.9308	0.2927	-0.514
Mof_O 	O 	0.9781	0.8655	0.2337	-0.324
Mof_O 	O 	0.8351	0.224	0.0518	-0.312
Mof_O 	O 	0.0172	0.1188	0.2407	-0.507
Mof_C 	C 	0.9646	0.1931	0.1803	-0.2
Mof_C 	C 	0.929	0.3217	0.1467	0.14
Mof_H 	H 	0.9169	0.3645	0.1354	-0.037
Mof_C 	C 	0.9819	0.1238	0.198	0.434
Mof_C 	C 	0.9251	0.2012	0.1342	0.118
Mof_H 	H 	0.9114	0.164	0.1148	0.016
Mof_C 	C 	0.986	0.2496	0.2079	0.141
Mof_H 	H 	0.0127	0.2446	0.2381	-0.018
Mof_C 	C 	0.8593	0.2714	0.0735	0.38
Mof_C 	C 	0.0109	0.8738	0.2773	0.427
Mof_C 	C 	0.907	0.2646	0.1183	-0.191
Mof_O 	O 	0.8447	0.3293	0.0581	-0.29
Mof_O 	O 	0.538	0.4245	0.1711	-0.33
Mof_C 	C 	0.5317	0.1867	0.191	-0.218
Mof_O 	O 	0.4699	0.5692	0.2927	-0.515
Mof_O 	O 	0.5219	0.6345	0.2337	-0.322
Mof_O 	O 	0.6649	0.276	0.0518	-0.312
Mof_O 	O 	0.4828	0.3812	0.2407	-0.506
Mof_C 	C 	0.5354	0.3069	0.1803	-0.199
Mof_C 	C 	0.571	0.1783	0.1467	0.138
Mof_H 	H 	0.5831	0.1355	0.1354	-0.036
Mof_C 	C 	0.5181	0.3762	0.198	0.432
Mof_C 	C 	0.5749	0.2988	0.1342	0.117
Mof_H 	H 	0.5886	0.336	0.1148	0.016
Mof_C 	C 	0.514	0.2504	0.2079	0.138
Mof_H 	H 	0.4873	0.2554	0.2381	-0.016
Mof_C 	C 	0.6407	0.2286	0.0735	0.38
Mof_C 	C 	0.4891	0.6262	0.2773	0.425
Mof_C 	C 	0.593	0.2354	0.1183	-0.19
Mof_O 	O 	0.6553	0.1707	0.0581	-0.29
Mof_O 	O 	0.0755	0.538	0.6711	-0.329
Mof_C 	C 	0.3133	0.5317	0.691	-0.216
Mof_O 	O 	0.9308	0.4699	0.7927	-0.515
Mof_O 	O 	0.8655	0.5219	0.7337	-0.321
Mof_O 	O 	0.224	0.6649	0.5518	-0.308
Mof_O 	O 	0.1188	0.4828	0.7407	-0.506
Mof_C 	C 	0.1931	0.5354	0.6803	-0.197
Mof_C 	C 	0.3217	0.571	0.6467	0.137
Mof_H 	H 	0.3645	0.5831	0.6354	-0.035
Mof_C 	C 	0.1238	0.5181	0.698	0.431
Mof_C 	C 	0.2012	0.5749	0.6342	0.115
Mof_H 	H 	0.164	0.5886	0.6148	0.019
Mof_C 	C 	0.2496	0.514	0.7079	0.137
Mof_H 	H 	0.2446	0.4873	0.7381	-0.015
Mof_C 	C 	0.2714	0.6407	0.5735	0.378
Mof_C 	C 	0.8738	0.4891	0.7773	0.424
Mof_C 	C 	0.2646	0.593	0.6183	-0.187
Mof_O 	O 	0.3293	0.6553	0.5581	-0.285
Mof_O 	O 	0.4245	0.962	0.6711	-0.329
Mof_C 	C 	0.1867	0.9683	0.691	-0.219
Mof_O 	O 	0.5692	0.0301	0.7927	-0.516
Mof_O 	O 	0.6345	0.9781	0.7337	-0.321
Mof_O 	O 	0.276	0.8351	0.5518	-0.308
Mof_O 	O 	0.3812	0.0172	0.7407	-0.507
Mof_C 	C 	0.3069	0.9646	0.6803	-0.199
Mof_C 	C 	0.1783	0.929	0.6467	0.139
Mof_H 	H 	0.1355	0.9169	0.6354	-0.035
Mof_C 	C 	0.3762	0.9819	0.698	0.434
Mof_C 	C 	0.2988	0.9251	0.6342	0.117
Mof_H 	H 	0.336	0.9114	0.6148	0.018
Mof_C 	C 	0.2504	0.986	0.7079	0.143
Mof_H 	H 	0.2554	0.0127	0.7381	-0.018
Mof_C 	C 	0.2286	0.8593	0.5735	0.379
Mof_C 	C 	0.6262	0.0109	0.7773	0.425
Mof_C 	C 	0.2354	0.907	0.6183	-0.188
Mof_O 	O 	0.1707	0.8447	0.5581	-0.285
Mof_O 	O 	0.962	0.4245	0.6711	-0.329
Mof_C 	C 	0.9683	0.1867	0.691	-0.219
Mof_O 	O 	0.0301	0.5692	0.7927	-0.516
Mof_O 	O 	0.9781	0.6345	0.7337	-0.321
Mof_O 	O 	0.8351	0.276	0.5518	-0.308
Mof_O 	O 	0.0172	0.3812	0.7407	-0.507
Mof_C 	C 	0.9646	0.3069	0.6803	-0.199
Mof_C 	C 	0.929	0.1783	0.6467	0.139
Mof_H 	H 	0.9169	0.1355	0.6354	-0.035
Mof_C 	C 	0.9819	0.3762	0.698	0.434
Mof_C 	C 	0.9251	0.2988	0.6342	0.117
Mof_H 	H 	0.9114	0.336	0.6148	0.018
Mof_C 	C 	0.986	0.2504	0.7079	0.143
Mof_H 	H 	0.0127	0.2554	0.7381	-0.018
Mof_C 	C 	0.8593	0.2286	0.5735	0.379
Mof_C 	C 	0.0109	0.6262	0.7773	0.425
Mof_C 	C 	0.907	0.2354	0.6183	-0.188
Mof_O 	O 	0.8447	0.1707	0.5581	-0.285
Mof_O 	O 	0.538	0.0755	0.6711	-0.329
Mof_C 	C 	0.5317	0.3133	0.691	-0.216
Mof_O 	O 	0.4699	0.9308	0.7927	-0.515
Mof_O 	O 	0.5219	0.8655	0.7337	-0.321
Mof_O 	O 	0.6649	0.224	0.5518	-0.308
Mof_O 	O 	0.4828	0.1188	0.7407	-0.506
Mof_C 	C 	0.5354	0.1931	0.6803	-0.197
Mof_C 	C 	0.571	0.3217	0.6467	0.137
Mof_H 	H 	0.5831	0.3645	0.6354	-0.035
Mof_C 	C 	0.5181	0.1238	0.698	0.431
Mof_C 	C 	0.5749	0.2012	0.6342	0.115
Mof_H 	H 	0.5886	0.164	0.6148	0.019
Mof_C 	C 	0.514	0.2496	0.7079	0.137
Mof_H 	H 	0.4873	0.2446	0.7381	-0.015
Mof_C 	C 	0.6407	0.2714	0.5735	0.378
Mof_C 	C 	0.4891	0.8738	0.7773	0.424
Mof_C 	C 	0.593	0.2646	0.6183	-0.187
Mof_O 	O 	0.6553	0.3293	0.5581	-0.285
Mof_O 	O 	0.0755	0.962	0.1711	-0.329
Mof_C 	C 	0.3133	0.9683	0.191	-0.22
Mof_O 	O 	0.9308	0.0301	0.2927	-0.514
Mof_O 	O 	0.8655	0.9781	0.2337	-0.324
Mof_O 	O 	0.224	0.8351	0.0518	-0.312
Mof_O 	O 	0.1188	0.0172	0.2407	-0.507
Mof_C 	C 	0.1931	0.9646	0.1803	-0.2
Mof_C 	C 	0.3217	0.929	0.1467	0.14
Mof_H 	H 	0.3645	0.9169	0.1354	-0.037
Mof_C 	C 	0.1238	0.9819	0.198	0.434
Mof_C 	C 	0.2012	0.9251	0.1342	0.118
Mof_H 	H 	0.164	0.9114	0.1148	0.016
Mof_C 	C 	0.2496	0.986	0.2079	0.141
Mof_H 	H 	0.2446	0.0127	0.2381	-0.018
Mof_C 	C 	0.2714	0.8593	0.0735	0.38
Mof_C 	C 	0.8738	0.0109	0.2773	0.427
Mof_C 	C 	0.2646	0.907	0.1183	-0.191
Mof_O 	O 	0.3293	0.8447	0.0581	-0.29
Mof_O 	O 	0.4245	0.538	0.1711	-0.33
Mof_C 	C 	0.1867	0.5317	0.191	-0.218
Mof_O 	O 	0.5692	0.4699	0.2927	-0.515
Mof_O 	O 	0.6345	0.5219	0.2337	-0.322
Mof_O 	O 	0.276	0.6649	0.0518	-0.312
Mof_O 	O 	0.3812	0.4828	0.2407	-0.506
Mof_C 	C 	0.3069	0.5354	0.1803	-0.199
Mof_C 	C 	0.1783	0.571	0.1467	0.138
Mof_H 	H 	0.1355	0.5831	0.1354	-0.036
Mof_C 	C 	0.3762	0.5181	0.198	0.432
Mof_C 	C 	0.2988	0.5749	0.1342	0.117
Mof_H 	H 	0.336	0.5886	0.1148	0.016
Mof_C 	C 	0.2504	0.514	0.2079	0.138
Mof_H 	H 	0.2554	0.4873	0.2381	-0.016
Mof_C 	C 	0.2286	0.6407	0.0735	0.38
Mof_C 	C 	0.6262	0.4891	0.2773	0.425
Mof_C 	C 	0.2354	0.593	0.1183	-0.19
Mof_O 	O 	0.1707	0.6553	0.0581	-0.29
Mof_O 	O 	0.038	0.9245	0.8289	-0.326
Mof_C 	C 	0.0317	0.6867	0.809	-0.215
Mof_O 	O 	0.9699	0.0692	0.7073	-0.515
Mof_O 	O 	0.0219	0.1345	0.7663	-0.323
Mof_O 	O 	0.1649	0.776	0.9482	-0.297
Mof_O 	O 	0.9828	0.8812	0.7593	-0.505
Mof_C 	C 	0.0354	0.8069	0.8197	-0.195
Mof_C 	C 	0.071	0.6783	0.8533	0.136
Mof_H 	H 	0.0831	0.6355	0.8646	-0.033
Mof_C 	C 	0.0181	0.8762	0.802	0.432
Mof_C 	C 	0.0749	0.7988	0.8658	0.114
Mof_H 	H 	0.0886	0.836	0.8852	0.022
Mof_C 	C 	0.014	0.7504	0.7921	0.138
Mof_H 	H 	0.9873	0.7554	0.7619	-0.016
Mof_C 	C 	0.1407	0.7286	0.9265	0.375
Mof_C 	C 	0.9891	0.1262	0.7227	0.428
Mof_C 	C 	0.093	0.7354	0.8817	-0.183
Mof_O 	O 	0.1553	0.6707	0.9419	-0.277
Mof_O 	O 	0.462	0.5755	0.8289	-0.327
Mof_C 	C 	0.4683	0.8133	0.809	-0.215
Mof_O 	O 	0.5301	0.4308	0.7073	-0.515
Mof_O 	O 	0.4781	0.3655	0.7663	-0.32
Mof_O 	O 	0.3351	0.724	0.9482	-0.297
Mof_O 	O 	0.5172	0.6188	0.7593	-0.505
Mof_C 	C 	0.4646	0.6931	0.8197	-0.194
Mof_C 	C 	0.429	0.8217	0.8533	0.135
Mof_H 	H 	0.4169	0.8645	0.8646	-0.033
Mof_C 	C 	0.4819	0.6238	0.802	0.431
Mof_C 	C 	0.4251	0.7012	0.8658	0.113
Mof_H 	H 	0.4114	0.664	0.8852	0.021
Mof_C 	C 	0.486	0.7496	0.7921	0.136
Mof_H 	H 	0.5127	0.7446	0.7619	-0.015
Mof_C 	C 	0.3593	0.7714	0.9265	0.375
Mof_C 	C 	0.5109	0.3738	0.7227	0.424
Mof_C 	C 	0.407	0.7646	0.8817	-0.182
Mof_O 	O 	0.3447	0.8293	0.9419	-0.276
Mof_O 	O 	0.9245	0.462	0.3289	-0.328
Mof_C 	C 	0.6867	0.4683	0.309	-0.217
Mof_O 	O 	0.0692	0.5301	0.2073	-0.515
Mof_O 	O 	0.1345	0.4781	0.2663	-0.321
Mof_O 	O 	0.776	0.3351	0.4482	-0.308
Mof_O 	O 	0.8812	0.5172	0.2593	-0.505
Mof_C 	C 	0.8069	0.4646	0.3197	-0.197
Mof_C 	C 	0.6783	0.429	0.3533	0.137
Mof_H 	H 	0.6355	0.4169	0.3646	-0.035
Mof_C 	C 	0.8762	0.4819	0.302	0.431
Mof_C 	C 	0.7988	0.4251	0.3658	0.115
Mof_H 	H 	0.836	0.4114	0.3852	0.019
Mof_C 	C 	0.7504	0.486	0.2921	0.138
Mof_H 	H 	0.7554	0.5127	0.2619	-0.016
Mof_C 	C 	0.7286	0.3593	0.4265	0.378
Mof_C 	C 	0.1262	0.5109	0.2227	0.424
Mof_C 	C 	0.7354	0.407	0.3817	-0.187
Mof_O 	O 	0.6707	0.3447	0.4419	-0.285
Mof_O 	O 	0.5755	0.038	0.3289	-0.329
Mof_C 	C 	0.8133	0.0317	0.309	-0.219
Mof_O 	O 	0.4308	0.9699	0.2073	-0.515
Mof_O 	O 	0.3655	0.0219	0.2663	-0.322
Mof_O 	O 	0.724	0.1649	0.4482	-0.308
Mof_O 	O 	0.6188	0.9828	0.2593	-0.505
Mof_C 	C 	0.6931	0.0354	0.3197	-0.199
Mof_C 	C 	0.8217	0.071	0.3533	0.139
Mof_H 	H 	0.8645	0.0831	0.3646	-0.035
Mof_C 	C 	0.6238	0.0181	0.302	0.433
Mof_C 	C 	0.7012	0.0749	0.3658	0.117
Mof_H 	H 	0.664	0.0886	0.3852	0.018
Mof_C 	C 	0.7496	0.014	0.2921	0.142
Mof_H 	H 	0.7446	0.9873	0.2619	-0.018
Mof_C 	C 	0.7714	0.1407	0.4265	0.379
Mof_C 	C 	0.3738	0.9891	0.2227	0.425
Mof_C 	C 	0.7646	0.093	0.3817	-0.188
Mof_O 	O 	0.8293	0.1553	0.4419	-0.285
Mof_Nd	Nd	0.95304	0.54696	0.18685	1.814
Mof_Cd	Cd	0.03264	0.46736	0.30526	0.446
Mof_Nd	Nd	0.54696	0.95304	0.18685	1.814
Mof_Cd	Cd	0.46736	0.03264	0.30526	0.446
Mof_Nd	Nd	0.95304	0.95304	0.68685	1.821
Mof_Cd	Cd	0.03264	0.03264	0.80526	0.445
Mof_Nd	Nd	0.54696	0.54696	0.68685	1.823
Mof_Cd	Cd	0.46736	0.46736	0.80526	0.448
Mof_Nd	Nd	0.04696	0.04696	0.31315	1.82
Mof_Cd	Cd	0.96736	0.96736	0.19474	0.442
Mof_Nd	Nd	0.45304	0.45304	0.31315	1.822
Mof_Cd	Cd	0.53264	0.53264	0.19474	0.444
Mof_Nd	Nd	0.04696	0.45304	0.81315	1.83
Mof_Cd	Cd	0.96736	0.53264	0.69474	0.446
Mof_Nd	Nd	0.45304	0.04696	0.81315	1.83
Mof_Cd	Cd	0.53264	0.96736	0.69474	0.446
Mof_Cd	Cd	0.2348	0.7652	0.5	0.274
Mof_Cd	Cd	0.2652	0.7348	0.5	0.273
Mof_Cd	Cd	0.7348	0.2348	-0	0.264
Mof_Cd	Cd	0.7652	0.2652	-0	0.263
Mof_Cd	Cd	0.7652	0.2348	0.5	0.274
Mof_Cd	Cd	0.7348	0.2652	0.5	0.273
Mof_Cd	Cd	0.2652	0.7652	-0	0.263
Mof_Cd	Cd	0.2348	0.7348	-0	0.264
_end
