# CIF file generated by openbabel 3.1.0, see https://openbabel.org
data_I
_chemical_name_common 'RAXCEA_charged'
_cell_length_a 10.534
_cell_length_b 13.2664
_cell_length_c 13.2664
_cell_angle_alpha 92.3547
_cell_angle_beta 113
_cell_angle_gamma 113
_space_group_name_H-M_alt 'P 1'
_space_group_name_Hall 'P 1'
loop_
    _symmetry_equiv_pos_as_xyz
    x,y,z
loop_
    _atom_site_label
    _atom_site_type_symbol
    _atom_site_fract_x
    _atom_site_fract_y
    _atom_site_fract_z
    _atom_site_occupancy
    Zn1      Zn       0.99305    0.15854    0.05608    1.000
    Zn2      Zn       0.50695    0.94392    0.84146    1.000
    Zn3      Zn       0.00695    0.84146    0.94392    1.000
    Zn4      Zn       0.49305    0.05608    0.15854    1.000
    P1       P        0.80395    0.95657    0.82991    1.000
    P2       P        0.69605    0.17009    0.04343    1.000
    P3       P        0.19605    0.04343    0.17009    1.000
    P4       P        0.30395    0.82991    0.95657    1.000
    H1       H        0.83430    0.16180    0.76460    1.000
    H2       H        0.77380    0.21710    0.59850    1.000
    H3       H        0.60430    0.90410    0.43230    1.000
    H4       H        0.66290    0.84760    0.59820    1.000
    H5       H        0.66570    0.23540    0.83820    1.000
    H6       H        0.72620    0.40150    0.78290    1.000
    H7       H        0.89570    0.56770    0.09590    1.000
    H8       H        0.83710    0.40180    0.15240    1.000
    H9       H        0.16570    0.83820    0.23540    1.000
    H10      H        0.22620    0.78290    0.40150    1.000
    H11      H        0.39570    0.09590    0.56770    1.000
    H12      H        0.33710    0.15240    0.40180    1.000
    H13      H        0.33430    0.76460    0.16180    1.000
    H14      H        0.27380    0.59850    0.21710    1.000
    H15      H        0.10430    0.43230    0.90410    1.000
    H16      H        0.16290    0.59820    0.84760    1.000
    C1       C        0.75590    0.99842    0.69878    1.000
    C2       C        0.78790    0.10920    0.69740    1.000
    C3       C        0.75230    0.14210    0.59830    1.000
    C4       C        0.68520    0.06623    0.49857    1.000
    C5       C        0.65170    0.95680    0.49980    1.000
    C6       C        0.68670    0.92290    0.59890    1.000
    C7       C        0.64430    0.10260    0.39060    1.000
    C8       C        0.74410    0.30122    0.00158    1.000
    C9       C        0.71210    0.30260    0.89080    1.000
    C10      C        0.74770    0.40170    0.85790    1.000
    C11      C        0.81480    0.50143    0.93377    1.000
    C12      C        0.84830    0.50020    0.04320    1.000
    C13      C        0.81330    0.40110    0.07710    1.000
    C14      C        0.85570    0.60940    0.89740    1.000
    C15      C        0.24410    0.00158    0.30122    1.000
    C16      C        0.21210    0.89080    0.30260    1.000
    C17      C        0.24770    0.85790    0.40170    1.000
    C18      C        0.31480    0.93377    0.50143    1.000
    C19      C        0.34830    0.04320    0.50020    1.000
    C20      C        0.31330    0.07710    0.40110    1.000
    C21      C        0.35570    0.89740    0.60940    1.000
    C22      C        0.25590    0.69878    0.99842    1.000
    C23      C        0.28790    0.69740    0.10920    1.000
    C24      C        0.25230    0.59830    0.14210    1.000
    C25      C        0.18520    0.49857    0.06623    1.000
    C26      C        0.15170    0.49980    0.95680    1.000
    C27      C        0.18670    0.59890    0.92290    1.000
    C28      C        0.14430    0.39060    0.10260    1.000
    O1       O        0.91610    0.06227    0.91701    1.000
    O2       O        0.65830    0.89645    0.84285    1.000
    O3       O        0.87060    0.87661    0.82219    1.000
    O4       O        0.66310    0.19956    0.38872    1.000
    O5       O        0.59050    0.02821    0.30463    1.000
    O6       O        0.58390    0.08299    0.93773    1.000
    O7       O        0.84170    0.15715    0.10355    1.000
    O8       O        0.62940    0.17781    0.12339    1.000
    O9       O        0.83690    0.61128    0.80044    1.000
    O10      O        0.90950    0.69537    0.97179    1.000
    O11      O        0.08390    0.93773    0.08299    1.000
    O12      O        0.34170    0.10355    0.15715    1.000
    O13      O        0.12940    0.12339    0.17781    1.000
    O14      O        0.33690    0.80044    0.61128    1.000
    O15      O        0.40950    0.97179    0.69537    1.000
    O16      O        0.41610    0.91701    0.06227    1.000
    O17      O        0.15830    0.84285    0.89645    1.000
    O18      O        0.37060    0.82219    0.87661    1.000
    O19      O        0.16310    0.38872    0.19956    1.000
    O20      O        0.09050    0.30463    0.02821    1.000
    H17      H        0.99980    0.21410    0.25970    1.000
    H18      H        0.14180    0.26410    0.36330    1.000
    H19      H        0.02750    0.37540    0.33760    1.000
    H20      H        0.88260    0.27650    0.33590    1.000
    H21      H        0.03690    0.33150    0.44690    1.000
    H22      H        0.02530    0.08000    0.34880    1.000
    H23      H        0.03360    0.14610    0.45370    1.000
    H24      H        0.88030    0.09240    0.34200    1.000
    C29      C        0.99270    0.31000    0.36640    1.000
    C30      C        0.99040    0.12890    0.37310    1.000
    N1       N        0.03860    0.23140    0.33520    1.000
    H25      H        0.50020    0.74030    0.78590    1.000
    H26      H        0.35820    0.63670    0.73590    1.000
    H27      H        0.47250    0.66240    0.62460    1.000
    H28      H        0.61740    0.66410    0.72350    1.000
    H29      H        0.46310    0.55310    0.66850    1.000
    H30      H        0.47470    0.65120    0.92000    1.000
    H31      H        0.46640    0.54630    0.85390    1.000
    H32      H        0.61970    0.65800    0.90760    1.000
    C31      C        0.50730    0.63360    0.69000    1.000
    C32      C        0.50960    0.62690    0.87110    1.000
    N2       N        0.46140    0.66480    0.76860    1.000
    H33      H        0.00020    0.78590    0.74030    1.000
    H34      H        0.85820    0.73590    0.63670    1.000
    H35      H        0.97250    0.62460    0.66240    1.000
    H36      H        0.11740    0.72350    0.66410    1.000
    H37      H        0.96310    0.66850    0.55310    1.000
    H38      H        0.97470    0.92000    0.65120    1.000
    H39      H        0.96640    0.85390    0.54630    1.000
    H40      H        0.11970    0.90760    0.65800    1.000
    C33      C        0.00730    0.69000    0.63360    1.000
    C34      C        0.00960    0.87110    0.62690    1.000
    N3       N        0.96140    0.76860    0.66480    1.000
    H41      H        0.49980    0.25970    0.21410    1.000
    H42      H        0.64180    0.36330    0.26410    1.000
    H43      H        0.52750    0.33760    0.37540    1.000
    H44      H        0.38260    0.33590    0.27650    1.000
    H45      H        0.53690    0.44690    0.33150    1.000
    H46      H        0.52530    0.34880    0.08000    1.000
    H47      H        0.53360    0.45370    0.14610    1.000
    H48      H        0.38030    0.34200    0.09240    1.000
    C35      C        0.49270    0.36640    0.31000    1.000
    C36      C        0.49040    0.37310    0.12890    1.000
    N4       N        0.53860    0.33520    0.23140    1.000
