# CIF file generated by openbabel 3.1.0, see https://openbabel.org
data_I
_chemical_name_common 'SETQUF_clean'
_cell_length_a 11.2577
_cell_length_b 11.2577
_cell_length_c 15.9049
_cell_angle_alpha 115.848
_cell_angle_beta 115.848
_cell_angle_gamma 90.8657
_space_group_name_H-M_alt 'P 1'
_space_group_name_Hall 'P 1'
loop_
    _symmetry_equiv_pos_as_xyz
    x,y,z
loop_
    _atom_site_label
    _atom_site_type_symbol
    _atom_site_fract_x
    _atom_site_fract_y
    _atom_site_fract_z
    _atom_site_occupancy
    H1       H        0.92044    0.81630    0.42645    1.000
    H2       H        0.86776    0.98142    0.37253    1.000
    H3       H        0.57251    0.68675    0.07747    1.000
    H4       H        0.62519    0.52163    0.13139    1.000
    C5       C        0.77718    0.65526    0.28339    1.000
    C6       C        0.84790    0.78930    0.35369    1.000
    C7       C        0.81718    0.88554    0.32225    1.000
    C8       C        0.71577    0.84779    0.22053    1.000
    C9       C        0.64506    0.71376    0.15024    1.000
    C10      C        0.67577    0.61751    0.18167    1.000
    C11      C        0.81015    0.55197    0.31712    1.000
    C12      C        0.68280    0.95108    0.18680    1.000
    O13      O        0.74655    0.42733    0.25127    1.000
    O14      O        0.90223    0.58739    0.41212    1.000
    O15      O        0.58367    0.91745    0.09469    1.000
    O16      O        0.75346    0.07394    0.24977    1.000
    O17      O        0.66183    0.14795    0.09335    1.000
    H18      H        0.19949    0.70703    0.56569    1.000
    H19      H        0.18370    0.07956    0.07355    1.000
    H20      H        0.01858    0.13224    0.12747    1.000
    H21      H        0.31325    0.42749    0.42253    1.000
    H22      H        0.47837    0.37481    0.36861    1.000
    C23      C        0.34474    0.22282    0.21661    1.000
    C24      C        0.21070    0.15210    0.14631    1.000
    C25      C        0.11446    0.18282    0.17775    1.000
    C26      C        0.15221    0.28423    0.27947    1.000
    C27      C        0.28624    0.35494    0.34976    1.000
    C28      C        0.38249    0.32423    0.31833    1.000
    C29      C        0.44803    0.18985    0.18288    1.000
    C30      C        0.04892    0.31720    0.31320    1.000
    O31      O        0.57267    0.25345    0.24873    1.000
    O32      O        0.41261    0.09777    0.08788    1.000
    O33      O        0.08255    0.41633    0.40531    1.000
    O34      O        0.92606    0.24654    0.25023    1.000
    O35      O        0.85205    0.33817    0.40665    1.000
    H36      H        0.29297    0.80051    0.93431    1.000
    H37      H        0.07956    0.18370    0.57355    1.000
    H38      H        0.13224    0.01858    0.62747    1.000
    H39      H        0.42749    0.31325    0.92253    1.000
    H40      H        0.37481    0.47837    0.86861    1.000
    C41      C        0.22282    0.34474    0.71661    1.000
    C42      C        0.15210    0.21070    0.64631    1.000
    C43      C        0.18282    0.11446    0.67775    1.000
    C44      C        0.28423    0.15221    0.77947    1.000
    C45      C        0.35494    0.28624    0.84976    1.000
    C46      C        0.32423    0.38249    0.81833    1.000
    C47      C        0.18985    0.44803    0.68288    1.000
    C48      C        0.31720    0.04892    0.81320    1.000
    O49      O        0.25345    0.57267    0.74873    1.000
    O50      O        0.09777    0.41261    0.58788    1.000
    O51      O        0.41633    0.08255    0.90531    1.000
    O52      O        0.24654    0.92606    0.75023    1.000
    O53      O        0.33817    0.85205    0.90665    1.000
    H54      H        0.80051    0.29297    0.43431    1.000
    H55      H        0.81630    0.92044    0.92645    1.000
    H56      H        0.98142    0.86776    0.87253    1.000
    H57      H        0.68675    0.57251    0.57747    1.000
    H58      H        0.52163    0.62519    0.63139    1.000
    C59      C        0.65526    0.77718    0.78339    1.000
    C60      C        0.78930    0.84790    0.85369    1.000
    C61      C        0.88554    0.81718    0.82225    1.000
    C62      C        0.84779    0.71577    0.72053    1.000
    C63      C        0.71376    0.64506    0.65024    1.000
    C64      C        0.61751    0.67577    0.68167    1.000
    C65      C        0.55197    0.81015    0.81712    1.000
    C66      C        0.95108    0.68280    0.68680    1.000
    O67      O        0.42733    0.74655    0.75127    1.000
    O68      O        0.58739    0.90223    0.91212    1.000
    O69      O        0.91745    0.58367    0.59469    1.000
    O70      O        0.07394    0.75346    0.74977    1.000
    O71      O        0.14795    0.66183    0.59335    1.000
    H72      H        0.70703    0.19949    0.06569    1.000
    Fe73     Fe       0.75177    0.24823    0.25000    1.000
    Fe74     Fe       0.24823    0.75177    0.75000    1.000
    Fe75     Fe       0.50000    0.00000    0.00000    1.000
    Fe76     Fe       0.00000    0.50000    0.50000    1.000
