# CIF file generated by openbabel 3.1.0, see https://openbabel.org
data_I
_chemical_name_common 'image0'
_cell_length_a 22.0572
_cell_length_b 16.3893
_cell_length_c 25.603
_cell_angle_alpha 90
_cell_angle_beta 115.305
_cell_angle_gamma 90
_space_group_name_H-M_alt 'P 1'
_space_group_name_Hall 'P 1'
loop_
    _symmetry_equiv_pos_as_xyz
    x,y,z
loop_
    _atom_site_label
    _atom_site_type_symbol
    _atom_site_fract_x
    _atom_site_fract_y
    _atom_site_fract_z
    _atom_site_occupancy
    Ag1      Ag       0.84414    0.45773    0.36791    1.000
    Ag2      Ag       0.32294    0.25223    0.86728    1.000
    C1       C        0.12400    0.25730    0.50250    1.000
    C2       C        0.77800    0.63770    0.00930    1.000
    H1       H        0.79890    0.63380    0.04930    1.000
    C3       C        0.59760    0.46970    0.00090    1.000
    C4       C        0.23490    0.06470    0.38830    1.000
    H2       H        0.21280    0.05740    0.34850    1.000
    C5       C        0.29790    0.08440    0.50490    1.000
    H3       H        0.32030    0.08900    0.54490    1.000
    C6       C        0.03330    0.31220    0.41110    1.000
    H4       H        0.05480    0.29080    0.38990    1.000
    C7       C        0.06000    0.30240    0.47010    1.000
    C8       C        0.44360    0.34310    0.96480    1.000
    H5       H        0.42340    0.31530    0.98480    1.000
    C9       C        0.50340    0.38350    0.99640    1.000
    H6       H        0.52310    0.38190    0.03660    1.000
    C10      C        0.71970    0.65200    0.89220    1.000
    H7       H        0.69950    0.65670    0.85210    1.000
    C11      C        0.20990    0.22710    0.58760    1.000
    C12      C        0.53320    0.42640    0.96690    1.000
    C13      C        0.67920    0.45620    0.18150    1.000
    H8       H        0.63520    0.43830    0.16160    1.000
    C14      C        0.24330    0.23770    0.65140    1.000
    C15      C        0.02620    0.33550    0.49980    1.000
    H9       H        0.04350    0.33070    0.53970    1.000
    C16      C        0.68230    0.55190    0.00670    1.000
    C17      C        0.68020    0.50200    0.08810    1.000
    C18      C        0.71540    0.60140    0.97750    1.000
    C19      C        0.68610    0.60940    0.91860    1.000
    H10      H        0.64420    0.58660    0.89660    1.000
    C20      C        0.97360    0.35470    0.38420    1.000
    H11      H        0.95630    0.36260    0.34440    1.000
    C21      C        0.32570    0.04080    0.47400    1.000
    H12      H        0.36780    0.01760    0.49430    1.000
    C22      C        0.96700    0.37550    0.46950    1.000
    H13      H        0.94460    0.39720    0.48990    1.000
    C23      C        0.80830    0.67960    0.97960    1.000
    H14      H        0.84990    0.70370    0.00070    1.000
    C24      C        0.20560    0.17240    0.50520    1.000
    C25      C        0.23580    0.12090    0.47460    1.000
    C26      C        0.80730    0.50490    0.24270    1.000
    H15      H        0.85160    0.52140    0.26350    1.000
    C27      C        0.20370    0.11030    0.41500    1.000
    H16      H        0.16190    0.13350    0.39360    1.000
    C28      C        0.50230    0.42670    0.90710    1.000
    H17      H        0.52050    0.45570    0.88600    1.000
    C29      C        0.71230    0.49240    0.15190    1.000
    C30      C        0.21580    0.28930    0.67810    1.000
    H18      H        0.17770    0.31960    0.65630    1.000
    C31      C        0.77810    0.51680    0.18340    1.000
    H19      H        0.80220    0.54060    0.16520    1.000
    C32      C        0.44380    0.38300    0.87970    1.000
    H20      H        0.42400    0.38190    0.83950    1.000
    C33      C        0.30230    0.19740    0.68500    1.000
    H21      H        0.32360    0.16470    0.66820    1.000
    C34      C        0.32870    0.20720    0.74430    1.000
    H22      H        0.36820    0.17980    0.76700    1.000
    C35      C        0.24580    0.29530    0.73740    1.000
    H23      H        0.22680    0.33000    0.75500    1.000
    C36      C        0.71210    0.44710    0.24030    1.000
    H24      H        0.68910    0.42320    0.25950    1.000
    N1       N        0.93951    0.38510    0.41209    1.000
    N2       N        0.29548    0.03030    0.41670    1.000
    N3       N        0.30070    0.25370    0.77100    1.000
    N4       N        0.15324    0.26780    0.55939    1.000
    N5       N        0.14786    0.21020    0.47242    1.000
    N6       N        0.23824    0.17800    0.56282    1.000
    N7       N        0.41356    0.34210    0.90728    1.000
    N8       N        0.78030    0.68700    0.92164    1.000
    N9       N        0.77590    0.47120    0.27169    1.000
    N10      N        0.62276    0.46260    0.05861    1.000
    N11      N        0.62621    0.51140    0.97300    1.000
    N12      N        0.71159    0.54960    0.06475    1.000
    Ag3      Ag       0.34414    0.95773    0.36791    1.000
    Ag4      Ag       0.82294    0.75223    0.86728    1.000
    C37      C        0.62400    0.75730    0.50250    1.000
    C38      C        0.27800    0.13770    0.00930    1.000
    H25      H        0.29890    0.13380    0.04930    1.000
    C39      C        0.09760    0.96970    0.00090    1.000
    C40      C        0.73490    0.56470    0.38830    1.000
    H26      H        0.71280    0.55740    0.34850    1.000
    C41      C        0.79790    0.58440    0.50490    1.000
    H27      H        0.82030    0.58900    0.54490    1.000
    C42      C        0.53330    0.81220    0.41110    1.000
    H28      H        0.55480    0.79080    0.38990    1.000
    C43      C        0.56000    0.80240    0.47010    1.000
    C44      C        0.94360    0.84310    0.96480    1.000
    H29      H        0.92340    0.81530    0.98480    1.000
    C45      C        0.00340    0.88350    0.99640    1.000
    H30      H        0.02310    0.88190    0.03660    1.000
    C46      C        0.21970    0.15200    0.89220    1.000
    H31      H        0.19950    0.15670    0.85210    1.000
    C47      C        0.70990    0.72710    0.58760    1.000
    C48      C        0.03320    0.92640    0.96690    1.000
    C49      C        0.17920    0.95620    0.18150    1.000
    H32      H        0.13520    0.93830    0.16160    1.000
    C50      C        0.74330    0.73770    0.65140    1.000
    C51      C        0.52620    0.83550    0.49980    1.000
    H33      H        0.54350    0.83070    0.53970    1.000
    C52      C        0.18230    0.05190    0.00670    1.000
    C53      C        0.18020    0.00200    0.08810    1.000
    C54      C        0.21540    0.10140    0.97750    1.000
    C55      C        0.18610    0.10940    0.91860    1.000
    H34      H        0.14420    0.08660    0.89660    1.000
    C56      C        0.47360    0.85470    0.38420    1.000
    H35      H        0.45630    0.86260    0.34440    1.000
    C57      C        0.82570    0.54080    0.47400    1.000
    H36      H        0.86780    0.51760    0.49430    1.000
    C58      C        0.46700    0.87550    0.46950    1.000
    H37      H        0.44460    0.89720    0.48990    1.000
    C59      C        0.30830    0.17960    0.97960    1.000
    H38      H        0.34990    0.20370    0.00070    1.000
    C60      C        0.70560    0.67240    0.50520    1.000
    C61      C        0.73580    0.62090    0.47460    1.000
    C62      C        0.30730    0.00490    0.24270    1.000
    H39      H        0.35160    0.02140    0.26350    1.000
    C63      C        0.70370    0.61030    0.41500    1.000
    H40      H        0.66190    0.63350    0.39360    1.000
    C64      C        0.00230    0.92670    0.90710    1.000
    H41      H        0.02050    0.95570    0.88600    1.000
    C65      C        0.21230    0.99240    0.15190    1.000
    C66      C        0.71580    0.78930    0.67810    1.000
    H42      H        0.67770    0.81960    0.65630    1.000
    C67      C        0.27810    0.01680    0.18340    1.000
    H43      H        0.30220    0.04060    0.16520    1.000
    C68      C        0.94380    0.88300    0.87970    1.000
    H44      H        0.92400    0.88190    0.83950    1.000
    C69      C        0.80230    0.69740    0.68500    1.000
    H45      H        0.82360    0.66470    0.66820    1.000
    C70      C        0.82870    0.70720    0.74430    1.000
    H46      H        0.86820    0.67980    0.76700    1.000
    C71      C        0.74580    0.79530    0.73740    1.000
    H47      H        0.72680    0.83000    0.75500    1.000
    C72      C        0.21210    0.94710    0.24030    1.000
    H48      H        0.18910    0.92320    0.25950    1.000
    N13      N        0.43951    0.88510    0.41209    1.000
    N14      N        0.79548    0.53030    0.41670    1.000
    N15      N        0.80070    0.75370    0.77100    1.000
    N16      N        0.65324    0.76780    0.55939    1.000
    N17      N        0.64786    0.71020    0.47242    1.000
    N18      N        0.73824    0.67800    0.56282    1.000
    N19      N        0.91356    0.84210    0.90728    1.000
    N20      N        0.28030    0.18700    0.92164    1.000
    N21      N        0.27590    0.97120    0.27169    1.000
    N22      N        0.12276    0.96260    0.05861    1.000
    N23      N        0.12621    0.01140    0.97300    1.000
    N24      N        0.21159    0.04960    0.06475    1.000
    Ag5      Ag       0.15586    0.45773    0.13209    1.000
    Ag6      Ag       0.67706    0.25223    0.63272    1.000
    C73      C        0.87600    0.25730    0.99750    1.000
    C74      C        0.22200    0.63770    0.49070    1.000
    H49      H        0.20110    0.63380    0.45070    1.000
    C75      C        0.40240    0.46970    0.49910    1.000
    C76      C        0.76510    0.06470    0.11170    1.000
    H50      H        0.78720    0.05740    0.15150    1.000
    C77      C        0.70210    0.08440    0.99510    1.000
    H51      H        0.67970    0.08900    0.95510    1.000
    C78      C        0.96670    0.31220    0.08890    1.000
    H52      H        0.94520    0.29080    0.11010    1.000
    C79      C        0.94000    0.30240    0.02990    1.000
    C80      C        0.55640    0.34310    0.53520    1.000
    H53      H        0.57660    0.31530    0.51520    1.000
    C81      C        0.49660    0.38350    0.50360    1.000
    H54      H        0.47690    0.38190    0.46340    1.000
    C82      C        0.28030    0.65200    0.60780    1.000
    H55      H        0.30050    0.65670    0.64790    1.000
    C83      C        0.79010    0.22710    0.91240    1.000
    C84      C        0.46680    0.42640    0.53310    1.000
    C85      C        0.32080    0.45620    0.31850    1.000
    H56      H        0.36480    0.43830    0.33840    1.000
    C86      C        0.75670    0.23770    0.84860    1.000
    C87      C        0.97380    0.33550    0.00020    1.000
    H57      H        0.95650    0.33070    0.96030    1.000
    C88      C        0.31770    0.55190    0.49330    1.000
    C89      C        0.31980    0.50200    0.41190    1.000
    C90      C        0.28460    0.60140    0.52250    1.000
    C91      C        0.31390    0.60940    0.58140    1.000
    H58      H        0.35580    0.58660    0.60340    1.000
    C92      C        0.02640    0.35470    0.11580    1.000
    H59      H        0.04370    0.36260    0.15560    1.000
    C93      C        0.67430    0.04080    0.02600    1.000
    H60      H        0.63220    0.01760    0.00570    1.000
    C94      C        0.03300    0.37550    0.03050    1.000
    H61      H        0.05540    0.39720    0.01010    1.000
    C95      C        0.19170    0.67960    0.52040    1.000
    H62      H        0.15010    0.70370    0.49930    1.000
    C96      C        0.79440    0.17240    0.99480    1.000
    C97      C        0.76420    0.12090    0.02540    1.000
    C98      C        0.19270    0.50490    0.25730    1.000
    H63      H        0.14840    0.52140    0.23650    1.000
    C99      C        0.79630    0.11030    0.08500    1.000
    H64      H        0.83810    0.13350    0.10640    1.000
    C100     C        0.49770    0.42670    0.59290    1.000
    H65      H        0.47950    0.45570    0.61400    1.000
    C101     C        0.28770    0.49240    0.34810    1.000
    C102     C        0.78420    0.28930    0.82190    1.000
    H66      H        0.82230    0.31960    0.84370    1.000
    C103     C        0.22190    0.51680    0.31660    1.000
    H67      H        0.19780    0.54060    0.33480    1.000
    C104     C        0.55620    0.38300    0.62030    1.000
    H68      H        0.57600    0.38190    0.66050    1.000
    C105     C        0.69770    0.19740    0.81500    1.000
    H69      H        0.67640    0.16470    0.83180    1.000
    C106     C        0.67130    0.20720    0.75570    1.000
    H70      H        0.63180    0.17980    0.73300    1.000
    C107     C        0.75420    0.29530    0.76260    1.000
    H71      H        0.77320    0.33000    0.74500    1.000
    C108     C        0.28790    0.44710    0.25970    1.000
    H72      H        0.31090    0.42320    0.24050    1.000
    N25      N        0.06049    0.38510    0.08791    1.000
    N26      N        0.70452    0.03030    0.08330    1.000
    N27      N        0.69930    0.25370    0.72900    1.000
    N28      N        0.84676    0.26780    0.94061    1.000
    N29      N        0.85214    0.21020    0.02758    1.000
    N30      N        0.76176    0.17800    0.93718    1.000
    N31      N        0.58644    0.34210    0.59272    1.000
    N32      N        0.21970    0.68700    0.57836    1.000
    N33      N        0.22410    0.47120    0.22831    1.000
    N34      N        0.37724    0.46260    0.44139    1.000
    N35      N        0.37379    0.51140    0.52700    1.000
    N36      N        0.28841    0.54960    0.43525    1.000
    Ag7      Ag       0.65586    0.95773    0.13209    1.000
    Ag8      Ag       0.17706    0.75223    0.63272    1.000
    C109     C        0.37600    0.75730    0.99750    1.000
    C110     C        0.72200    0.13770    0.49070    1.000
    H73      H        0.70110    0.13380    0.45070    1.000
    C111     C        0.90240    0.96970    0.49910    1.000
    C112     C        0.26510    0.56470    0.11170    1.000
    H74      H        0.28720    0.55740    0.15150    1.000
    C113     C        0.20210    0.58440    0.99510    1.000
    H75      H        0.17970    0.58900    0.95510    1.000
    C114     C        0.46670    0.81220    0.08890    1.000
    H76      H        0.44520    0.79080    0.11010    1.000
    C115     C        0.44000    0.80240    0.02990    1.000
    C116     C        0.05640    0.84310    0.53520    1.000
    H77      H        0.07660    0.81530    0.51520    1.000
    C117     C        0.99660    0.88350    0.50360    1.000
    H78      H        0.97690    0.88190    0.46340    1.000
    C118     C        0.78030    0.15200    0.60780    1.000
    H79      H        0.80050    0.15670    0.64790    1.000
    C119     C        0.29010    0.72710    0.91240    1.000
    C120     C        0.96680    0.92640    0.53310    1.000
    C121     C        0.82080    0.95620    0.31850    1.000
    H80      H        0.86480    0.93830    0.33840    1.000
    C122     C        0.25670    0.73770    0.84860    1.000
    C123     C        0.47380    0.83550    0.00020    1.000
    H81      H        0.45650    0.83070    0.96030    1.000
    C124     C        0.81770    0.05190    0.49330    1.000
    C125     C        0.81980    0.00200    0.41190    1.000
    C126     C        0.78460    0.10140    0.52250    1.000
    C127     C        0.81390    0.10940    0.58140    1.000
    H82      H        0.85580    0.08660    0.60340    1.000
    C128     C        0.52640    0.85470    0.11580    1.000
    H83      H        0.54370    0.86260    0.15560    1.000
    C129     C        0.17430    0.54080    0.02600    1.000
    H84      H        0.13220    0.51760    0.00570    1.000
    C130     C        0.53300    0.87550    0.03050    1.000
    H85      H        0.55540    0.89720    0.01010    1.000
    C131     C        0.69170    0.17960    0.52040    1.000
    H86      H        0.65010    0.20370    0.49930    1.000
    C132     C        0.29440    0.67240    0.99480    1.000
    C133     C        0.26420    0.62090    0.02540    1.000
    C134     C        0.69270    0.00490    0.25730    1.000
    H87      H        0.64840    0.02140    0.23650    1.000
    C135     C        0.29630    0.61030    0.08500    1.000
    H88      H        0.33810    0.63350    0.10640    1.000
    C136     C        0.99770    0.92670    0.59290    1.000
    H89      H        0.97950    0.95570    0.61400    1.000
    C137     C        0.78770    0.99240    0.34810    1.000
    C138     C        0.28420    0.78930    0.82190    1.000
    H90      H        0.32230    0.81960    0.84370    1.000
    C139     C        0.72190    0.01680    0.31660    1.000
    H91      H        0.69780    0.04060    0.33480    1.000
    C140     C        0.05620    0.88300    0.62030    1.000
    H92      H        0.07600    0.88190    0.66050    1.000
    C141     C        0.19770    0.69740    0.81500    1.000
    H93      H        0.17640    0.66470    0.83180    1.000
    C142     C        0.17130    0.70720    0.75570    1.000
    H94      H        0.13180    0.67980    0.73300    1.000
    C143     C        0.25420    0.79530    0.76260    1.000
    H95      H        0.27320    0.83000    0.74500    1.000
    C144     C        0.78790    0.94710    0.25970    1.000
    H96      H        0.81090    0.92320    0.24050    1.000
    N37      N        0.56049    0.88510    0.08791    1.000
    N38      N        0.20452    0.53030    0.08330    1.000
    N39      N        0.19930    0.75370    0.72900    1.000
    N40      N        0.34676    0.76780    0.94061    1.000
    N41      N        0.35214    0.71020    0.02758    1.000
    N42      N        0.26176    0.67800    0.93718    1.000
    N43      N        0.08644    0.84210    0.59272    1.000
    N44      N        0.71970    0.18700    0.57836    1.000
    N45      N        0.72410    0.97120    0.22831    1.000
    N46      N        0.87724    0.96260    0.44139    1.000
    N47      N        0.87379    0.01140    0.52700    1.000
    N48      N        0.78841    0.04960    0.43525    1.000
    Ag9      Ag       0.15586    0.54227    0.63209    1.000
    Ag10     Ag       0.67706    0.74777    0.13272    1.000
    C145     C        0.87600    0.74270    0.49750    1.000
    C146     C        0.22200    0.36230    0.99070    1.000
    H97      H        0.20110    0.36620    0.95070    1.000
    C147     C        0.40240    0.53030    0.99910    1.000
    C148     C        0.76510    0.93530    0.61170    1.000
    H98      H        0.78720    0.94260    0.65150    1.000
    C149     C        0.70210    0.91560    0.49510    1.000
    H99      H        0.67970    0.91100    0.45510    1.000
    C150     C        0.96670    0.68780    0.58890    1.000
    H100     H        0.94520    0.70920    0.61010    1.000
    C151     C        0.94000    0.69760    0.52990    1.000
    C152     C        0.55640    0.65690    0.03520    1.000
    H101     H        0.57660    0.68470    0.01520    1.000
    C153     C        0.49660    0.61650    0.00360    1.000
    H102     H        0.47690    0.61810    0.96340    1.000
    C154     C        0.28030    0.34800    0.10780    1.000
    H103     H        0.30050    0.34330    0.14790    1.000
    C155     C        0.79010    0.77290    0.41240    1.000
    C156     C        0.46680    0.57360    0.03310    1.000
    C157     C        0.32080    0.54380    0.81850    1.000
    H104     H        0.36480    0.56170    0.83840    1.000
    C158     C        0.75670    0.76230    0.34860    1.000
    C159     C        0.97380    0.66450    0.50020    1.000
    H105     H        0.95650    0.66930    0.46030    1.000
    C160     C        0.31770    0.44810    0.99330    1.000
    C161     C        0.31980    0.49800    0.91190    1.000
    C162     C        0.28460    0.39860    0.02250    1.000
    C163     C        0.31390    0.39060    0.08140    1.000
    H106     H        0.35580    0.41340    0.10340    1.000
    C164     C        0.02640    0.64530    0.61580    1.000
    H107     H        0.04370    0.63740    0.65560    1.000
    C165     C        0.67430    0.95920    0.52600    1.000
    H108     H        0.63220    0.98240    0.50570    1.000
    C166     C        0.03300    0.62450    0.53050    1.000
    H109     H        0.05540    0.60280    0.51010    1.000
    C167     C        0.19170    0.32040    0.02040    1.000
    H110     H        0.15010    0.29630    0.99930    1.000
    C168     C        0.79440    0.82760    0.49480    1.000
    C169     C        0.76420    0.87910    0.52540    1.000
    C170     C        0.19270    0.49510    0.75730    1.000
    H111     H        0.14840    0.47860    0.73650    1.000
    C171     C        0.79630    0.88970    0.58500    1.000
    H112     H        0.83810    0.86650    0.60640    1.000
    C172     C        0.49770    0.57330    0.09290    1.000
    H113     H        0.47950    0.54430    0.11400    1.000
    C173     C        0.28770    0.50760    0.84810    1.000
    C174     C        0.78420    0.71070    0.32190    1.000
    H114     H        0.82230    0.68040    0.34370    1.000
    C175     C        0.22190    0.48320    0.81660    1.000
    H115     H        0.19780    0.45940    0.83480    1.000
    C176     C        0.55620    0.61700    0.12030    1.000
    H116     H        0.57600    0.61810    0.16050    1.000
    C177     C        0.69770    0.80260    0.31500    1.000
    H117     H        0.67640    0.83530    0.33180    1.000
    C178     C        0.67130    0.79280    0.25570    1.000
    H118     H        0.63180    0.82020    0.23300    1.000
    C179     C        0.75420    0.70470    0.26260    1.000
    H119     H        0.77320    0.67000    0.24500    1.000
    C180     C        0.28790    0.55290    0.75970    1.000
    H120     H        0.31090    0.57680    0.74050    1.000
    N49      N        0.06049    0.61490    0.58791    1.000
    N50      N        0.70452    0.96970    0.58330    1.000
    N51      N        0.69930    0.74630    0.22900    1.000
    N52      N        0.84676    0.73220    0.44061    1.000
    N53      N        0.85214    0.78980    0.52758    1.000
    N54      N        0.76176    0.82200    0.43718    1.000
    N55      N        0.58644    0.65790    0.09272    1.000
    N56      N        0.21970    0.31300    0.07836    1.000
    N57      N        0.22410    0.52880    0.72831    1.000
    N58      N        0.37724    0.53740    0.94139    1.000
    N59      N        0.37379    0.48860    0.02700    1.000
    N60      N        0.28841    0.45040    0.93525    1.000
    Ag11     Ag       0.65586    0.04227    0.63209    1.000
    Ag12     Ag       0.17706    0.24777    0.13272    1.000
    C181     C        0.37600    0.24270    0.49750    1.000
    C182     C        0.72200    0.86230    0.99070    1.000
    H121     H        0.70110    0.86620    0.95070    1.000
    C183     C        0.90240    0.03030    0.99910    1.000
    C184     C        0.26510    0.43530    0.61170    1.000
    H122     H        0.28720    0.44260    0.65150    1.000
    C185     C        0.20210    0.41560    0.49510    1.000
    H123     H        0.17970    0.41100    0.45510    1.000
    C186     C        0.46670    0.18780    0.58890    1.000
    H124     H        0.44520    0.20920    0.61010    1.000
    C187     C        0.44000    0.19760    0.52990    1.000
    C188     C        0.05640    0.15690    0.03520    1.000
    H125     H        0.07660    0.18470    0.01520    1.000
    C189     C        0.99660    0.11650    0.00360    1.000
    H126     H        0.97690    0.11810    0.96340    1.000
    C190     C        0.78030    0.84800    0.10780    1.000
    H127     H        0.80050    0.84330    0.14790    1.000
    C191     C        0.29010    0.27290    0.41240    1.000
    C192     C        0.96680    0.07360    0.03310    1.000
    C193     C        0.82080    0.04380    0.81850    1.000
    H128     H        0.86480    0.06170    0.83840    1.000
    C194     C        0.25670    0.26230    0.34860    1.000
    C195     C        0.47380    0.16450    0.50020    1.000
    H129     H        0.45650    0.16930    0.46030    1.000
    C196     C        0.81770    0.94810    0.99330    1.000
    C197     C        0.81980    0.99800    0.91190    1.000
    C198     C        0.78460    0.89860    0.02250    1.000
    C199     C        0.81390    0.89060    0.08140    1.000
    H130     H        0.85580    0.91340    0.10340    1.000
    C200     C        0.52640    0.14530    0.61580    1.000
    H131     H        0.54370    0.13740    0.65560    1.000
    C201     C        0.17430    0.45920    0.52600    1.000
    H132     H        0.13220    0.48240    0.50570    1.000
    C202     C        0.53300    0.12450    0.53050    1.000
    H133     H        0.55540    0.10280    0.51010    1.000
    C203     C        0.69170    0.82040    0.02040    1.000
    H134     H        0.65010    0.79630    0.99930    1.000
    C204     C        0.29440    0.32760    0.49480    1.000
    C205     C        0.26420    0.37910    0.52540    1.000
    C206     C        0.69270    0.99510    0.75730    1.000
    H135     H        0.64840    0.97860    0.73650    1.000
    C207     C        0.29630    0.38970    0.58500    1.000
    H136     H        0.33810    0.36650    0.60640    1.000
    C208     C        0.99770    0.07330    0.09290    1.000
    H137     H        0.97950    0.04430    0.11400    1.000
    C209     C        0.78770    0.00760    0.84810    1.000
    C210     C        0.28420    0.21070    0.32190    1.000
    H138     H        0.32230    0.18040    0.34370    1.000
    C211     C        0.72190    0.98320    0.81660    1.000
    H139     H        0.69780    0.95940    0.83480    1.000
    C212     C        0.05620    0.11700    0.12030    1.000
    H140     H        0.07600    0.11810    0.16050    1.000
    C213     C        0.19770    0.30260    0.31500    1.000
    H141     H        0.17640    0.33530    0.33180    1.000
    C214     C        0.17130    0.29280    0.25570    1.000
    H142     H        0.13180    0.32020    0.23300    1.000
    C215     C        0.25420    0.20470    0.26260    1.000
    H143     H        0.27320    0.17000    0.24500    1.000
    C216     C        0.78790    0.05290    0.75970    1.000
    H144     H        0.81090    0.07680    0.74050    1.000
    N61      N        0.56049    0.11490    0.58791    1.000
    N62      N        0.20452    0.46970    0.58330    1.000
    N63      N        0.19930    0.24630    0.22900    1.000
    N64      N        0.34676    0.23220    0.44061    1.000
    N65      N        0.35214    0.28980    0.52758    1.000
    N66      N        0.26176    0.32200    0.43718    1.000
    N67      N        0.08644    0.15790    0.09272    1.000
    N68      N        0.71970    0.81300    0.07836    1.000
    N69      N        0.72410    0.02880    0.72831    1.000
    N70      N        0.87724    0.03740    0.94139    1.000
    N71      N        0.87379    0.98860    0.02700    1.000
    N72      N        0.78841    0.95040    0.93525    1.000
    Ag13     Ag       0.84414    0.54227    0.86791    1.000
    Ag14     Ag       0.32294    0.74777    0.36728    1.000
    C217     C        0.12400    0.74270    0.00250    1.000
    C218     C        0.77800    0.36230    0.50930    1.000
    H145     H        0.79890    0.36620    0.54930    1.000
    C219     C        0.59760    0.53030    0.50090    1.000
    C220     C        0.23490    0.93530    0.88830    1.000
    H146     H        0.21280    0.94260    0.84850    1.000
    C221     C        0.29790    0.91560    0.00490    1.000
    H147     H        0.32030    0.91100    0.04490    1.000
    C222     C        0.03330    0.68780    0.91110    1.000
    H148     H        0.05480    0.70920    0.88990    1.000
    C223     C        0.06000    0.69760    0.97010    1.000
    C224     C        0.44360    0.65690    0.46480    1.000
    H149     H        0.42340    0.68470    0.48480    1.000
    C225     C        0.50340    0.61650    0.49640    1.000
    H150     H        0.52310    0.61810    0.53660    1.000
    C226     C        0.71970    0.34800    0.39220    1.000
    H151     H        0.69950    0.34330    0.35210    1.000
    C227     C        0.20990    0.77290    0.08760    1.000
    C228     C        0.53320    0.57360    0.46690    1.000
    C229     C        0.67920    0.54380    0.68150    1.000
    H152     H        0.63520    0.56170    0.66160    1.000
    C230     C        0.24330    0.76230    0.15140    1.000
    C231     C        0.02620    0.66450    0.99980    1.000
    H153     H        0.04350    0.66930    0.03970    1.000
    C232     C        0.68230    0.44810    0.50670    1.000
    C233     C        0.68020    0.49800    0.58810    1.000
    C234     C        0.71540    0.39860    0.47750    1.000
    C235     C        0.68610    0.39060    0.41860    1.000
    H154     H        0.64420    0.41340    0.39660    1.000
    C236     C        0.97360    0.64530    0.88420    1.000
    H155     H        0.95630    0.63740    0.84440    1.000
    C237     C        0.32570    0.95920    0.97400    1.000
    H156     H        0.36780    0.98240    0.99430    1.000
    C238     C        0.96700    0.62450    0.96950    1.000
    H157     H        0.94460    0.60280    0.98990    1.000
    C239     C        0.80830    0.32040    0.47960    1.000
    H158     H        0.84990    0.29630    0.50070    1.000
    C240     C        0.20560    0.82760    0.00520    1.000
    C241     C        0.23580    0.87910    0.97460    1.000
    C242     C        0.80730    0.49510    0.74270    1.000
    H159     H        0.85160    0.47860    0.76350    1.000
    C243     C        0.20370    0.88970    0.91500    1.000
    H160     H        0.16190    0.86650    0.89360    1.000
    C244     C        0.50230    0.57330    0.40710    1.000
    H161     H        0.52050    0.54430    0.38600    1.000
    C245     C        0.71230    0.50760    0.65190    1.000
    C246     C        0.21580    0.71070    0.17810    1.000
    H162     H        0.17770    0.68040    0.15630    1.000
    C247     C        0.77810    0.48320    0.68340    1.000
    H163     H        0.80220    0.45940    0.66520    1.000
    C248     C        0.44380    0.61700    0.37970    1.000
    H164     H        0.42400    0.61810    0.33950    1.000
    C249     C        0.30230    0.80260    0.18500    1.000
    H165     H        0.32360    0.83530    0.16820    1.000
    C250     C        0.32870    0.79280    0.24430    1.000
    H166     H        0.36820    0.82020    0.26700    1.000
    C251     C        0.24580    0.70470    0.23740    1.000
    H167     H        0.22680    0.67000    0.25500    1.000
    C252     C        0.71210    0.55290    0.74030    1.000
    H168     H        0.68910    0.57680    0.75950    1.000
    N73      N        0.93951    0.61490    0.91209    1.000
    N74      N        0.29548    0.96970    0.91670    1.000
    N75      N        0.30070    0.74630    0.27100    1.000
    N76      N        0.15324    0.73220    0.05939    1.000
    N77      N        0.14786    0.78980    0.97242    1.000
    N78      N        0.23824    0.82200    0.06282    1.000
    N79      N        0.41356    0.65790    0.40728    1.000
    N80      N        0.78030    0.31300    0.42164    1.000
    N81      N        0.77590    0.52880    0.77169    1.000
    N82      N        0.62276    0.53740    0.55861    1.000
    N83      N        0.62621    0.48860    0.47300    1.000
    N84      N        0.71159    0.45040    0.56475    1.000
    Ag15     Ag       0.34414    0.04227    0.86791    1.000
    Ag16     Ag       0.82294    0.24777    0.36728    1.000
    C253     C        0.62400    0.24270    0.00250    1.000
    C254     C        0.27800    0.86230    0.50930    1.000
    H169     H        0.29890    0.86620    0.54930    1.000
    C255     C        0.09760    0.03030    0.50090    1.000
    C256     C        0.73490    0.43530    0.88830    1.000
    H170     H        0.71280    0.44260    0.84850    1.000
    C257     C        0.79790    0.41560    0.00490    1.000
    H171     H        0.82030    0.41100    0.04490    1.000
    C258     C        0.53330    0.18780    0.91110    1.000
    H172     H        0.55480    0.20920    0.88990    1.000
    C259     C        0.56000    0.19760    0.97010    1.000
    C260     C        0.94360    0.15690    0.46480    1.000
    H173     H        0.92340    0.18470    0.48480    1.000
    C261     C        0.00340    0.11650    0.49640    1.000
    H174     H        0.02310    0.11810    0.53660    1.000
    C262     C        0.21970    0.84800    0.39220    1.000
    H175     H        0.19950    0.84330    0.35210    1.000
    C263     C        0.70990    0.27290    0.08760    1.000
    C264     C        0.03320    0.07360    0.46690    1.000
    C265     C        0.17920    0.04380    0.68150    1.000
    H176     H        0.13520    0.06170    0.66160    1.000
    C266     C        0.74330    0.26230    0.15140    1.000
    C267     C        0.52620    0.16450    0.99980    1.000
    H177     H        0.54350    0.16930    0.03970    1.000
    C268     C        0.18230    0.94810    0.50670    1.000
    C269     C        0.18020    0.99800    0.58810    1.000
    C270     C        0.21540    0.89860    0.47750    1.000
    C271     C        0.18610    0.89060    0.41860    1.000
    H178     H        0.14420    0.91340    0.39660    1.000
    C272     C        0.47360    0.14530    0.88420    1.000
    H179     H        0.45630    0.13740    0.84440    1.000
    C273     C        0.82570    0.45920    0.97400    1.000
    H180     H        0.86780    0.48240    0.99430    1.000
    C274     C        0.46700    0.12450    0.96950    1.000
    H181     H        0.44460    0.10280    0.98990    1.000
    C275     C        0.30830    0.82040    0.47960    1.000
    H182     H        0.34990    0.79630    0.50070    1.000
    C276     C        0.70560    0.32760    0.00520    1.000
    C277     C        0.73580    0.37910    0.97460    1.000
    C278     C        0.30730    0.99510    0.74270    1.000
    H183     H        0.35160    0.97860    0.76350    1.000
    C279     C        0.70370    0.38970    0.91500    1.000
    H184     H        0.66190    0.36650    0.89360    1.000
    C280     C        0.00230    0.07330    0.40710    1.000
    H185     H        0.02050    0.04430    0.38600    1.000
    C281     C        0.21230    0.00760    0.65190    1.000
    C282     C        0.71580    0.21070    0.17810    1.000
    H186     H        0.67770    0.18040    0.15630    1.000
    C283     C        0.27810    0.98320    0.68340    1.000
    H187     H        0.30220    0.95940    0.66520    1.000
    C284     C        0.94380    0.11700    0.37970    1.000
    H188     H        0.92400    0.11810    0.33950    1.000
    C285     C        0.80230    0.30260    0.18500    1.000
    H189     H        0.82360    0.33530    0.16820    1.000
    C286     C        0.82870    0.29280    0.24430    1.000
    H190     H        0.86820    0.32020    0.26700    1.000
    C287     C        0.74580    0.20470    0.23740    1.000
    H191     H        0.72680    0.17000    0.25500    1.000
    C288     C        0.21210    0.05290    0.74030    1.000
    H192     H        0.18910    0.07680    0.75950    1.000
    N85      N        0.43951    0.11490    0.91209    1.000
    N86      N        0.79548    0.46970    0.91670    1.000
    N87      N        0.80070    0.24630    0.27100    1.000
    N88      N        0.65324    0.23220    0.05939    1.000
    N89      N        0.64786    0.28980    0.97242    1.000
    N90      N        0.73824    0.32200    0.06282    1.000
    N91      N        0.91356    0.15790    0.40728    1.000
    N92      N        0.28030    0.81300    0.42164    1.000
    N93      N        0.27590    0.02880    0.77169    1.000
    N94      N        0.12276    0.03740    0.55861    1.000
    N95      N        0.12621    0.98860    0.47300    1.000
    N96      N        0.21159    0.95040    0.56475    1.000
