data_functionalizedCrystal
_audit_creation_method	'EQeq! by Chris Wilmer'
_symmetry_space_group_name_H-M	'P1'
_symmetry_Int_Tables_number	1
_symmetry_cell_setting	triclinic
loop_
_symmetry_equiv_pos_as_xyz
  x,y,z
_cell_length_a	12.646
_cell_length_b	14.834
_cell_length_c	16.0521
_cell_angle_alpha	90
_cell_angle_beta	98.1263
_cell_angle_gamma	90
loop_
_atom_site_label
_atom_site_type_symbol
_atom_site_fract_x
_atom_site_fract_y
_atom_site_fract_z
_atom_site_charge
Mof_Mn	Mn	0.02249	0.24871	0.0153	0.821
Mof_Mn	Mn	0.47751	0.74871	0.4847	0.941
Mof_Mn	Mn	0.97751	0.75129	0.9847	1.03
Mof_Mn	Mn	0.52249	0.25129	0.5153	0.928
Mof_Mn	Mn	-0	0	-0	0.774
Mof_Mn	Mn	0.5	0.5	0.5	1.006
Mof_Mn	Mn	-0	0.5	-0	0.709
Mof_Mn	Mn	0.5	-4.23409e-33	0.5	0.731
Mof_H 	H 	0.7187	0.0547	0.8087	0.008
Mof_H 	H 	0.5447	0.0529	0.7461	0.065
Mof_H 	H 	0.4723	0.2459	0.9049	0.087
Mof_H 	H 	0.6526	0.2542	0.9613	0.036
Mof_H 	H 	0.2075	0.1111	0.6146	0.035
Mof_H 	H 	0.3209	0.1401	0.8975	0.058
Mof_H 	H 	0.0509	0.0169	0.6028	0.074
Mof_H 	H 	0.8758	0.0105	0.5438	-0.02
Mof_H 	H 	0.8074	0.2038	0.7046	0.015
Mof_H 	H 	0.9809	0.2013	0.7674	0.088
Mof_H 	H 	0.2659	0.0661	0.2982	0.072
Mof_H 	H 	0.2607	0.1717	0.2976	0.092
Mof_H 	H 	0.3389	0.1216	0.2457	0.068
Mof_H 	H 	0.7813	0.5547	0.6913	0.039
Mof_H 	H 	0.9553	0.5529	0.7539	0.058
Mof_H 	H 	0.0277	0.7459	0.5951	0.037
Mof_H 	H 	0.8474	0.7542	0.5387	0.051
Mof_H 	H 	0.2925	0.6111	0.8854	0.059
Mof_H 	H 	0.1791	0.6401	0.6025	0.053
Mof_H 	H 	0.4491	0.5169	0.8972	0.093
Mof_H 	H 	0.6242	0.5105	0.9562	0.029
Mof_H 	H 	0.6926	0.7038	0.7954	0.018
Mof_H 	H 	0.5191	0.7013	0.7326	0.087
Mof_H 	H 	0.2341	0.5661	0.2018	0.105
Mof_H 	H 	0.2393	0.6717	0.2024	0.103
Mof_H 	H 	0.1611	0.6216	0.2543	0.088
Mof_H 	H 	0.2813	0.9453	0.1913	0.036
Mof_H 	H 	0.4553	0.9471	0.2539	0.091
Mof_H 	H 	0.5277	0.7541	0.0951	0.075
Mof_H 	H 	0.3474	0.7458	0.0387	0.009
Mof_H 	H 	0.7925	0.8889	0.3854	0.056
Mof_H 	H 	0.6791	0.8599	0.1025	0.043
Mof_H 	H 	0.9491	0.9831	0.3972	0.091
Mof_H 	H 	0.1242	0.9895	0.4562	0.046
Mof_H 	H 	0.1926	0.7962	0.2954	0.016
Mof_H 	H 	0.0191	0.7987	0.2326	0.081
Mof_H 	H 	0.7341	0.9339	0.7018	0.15
Mof_H 	H 	0.7393	0.8283	0.7024	0.128
Mof_H 	H 	0.6611	0.8784	0.7543	0.126
Mof_H 	H 	0.2187	0.4453	0.3087	-0.011
Mof_H 	H 	0.0447	0.4471	0.2461	0.111
Mof_H 	H 	0.9723	0.2541	0.4049	0.145
Mof_H 	H 	0.1526	0.2458	0.4613	-0.021
Mof_H 	H 	0.7075	0.3889	0.1146	0.038
Mof_H 	H 	0.8209	0.3599	0.3975	0.037
Mof_H 	H 	0.5509	0.4831	0.1028	0.071
Mof_H 	H 	0.3758	0.4895	0.0438	-0.002
Mof_H 	H 	0.3074	0.2962	0.2046	0.015
Mof_H 	H 	0.4809	0.2987	0.2674	0.078
Mof_H 	H 	0.7659	0.4339	0.7982	0.117
Mof_H 	H 	0.7607	0.3283	0.7976	0.117
Mof_H 	H 	0.8389	0.3784	0.7457	0.105
Mof_C 	C 	0.82	0.1501	0.9356	0.398
Mof_C 	C 	0.7051	0.1537	0.8926	-0.129
Mof_C 	C 	0.67	0.0939	0.8278	0.055
Mof_C 	C 	0.5654	0.0913	0.7912	-0.125
Mof_C 	C 	0.4895	0.1466	0.8216	0.069
Mof_C 	C 	0.5218	0.2079	0.8852	-0.121
Mof_C 	C 	0.6303	0.212	0.9197	0.055
Mof_C 	C 	0.3719	0.1387	0.786	0.02
Mof_C 	C 	0.3363	0.1293	0.6995	-0.092
Mof_C 	C 	0.4093	0.1337	0.6326	0.372
Mof_C 	C 	0.2298	0.1183	0.672	-0.017
Mof_C 	C 	0.1525	0.1176	0.7271	-0.003
Mof_C 	C 	0.1883	0.1266	0.8139	-0.071
Mof_C 	C 	0.1139	0.1227	0.8804	0.363
Mof_C 	C 	0.2973	0.1358	0.8401	-0.037
Mof_C 	C 	0.0346	0.1124	0.691	0.073
Mof_C 	C 	0.0011	0.0536	0.6236	-0.185
Mof_C 	C 	0.8968	0.0498	0.5883	0.107
Mof_C 	C 	0.8206	0.1051	0.619	-0.161
Mof_C 	C 	0.8555	0.1644	0.6851	0.072
Mof_C 	C 	0.9601	0.1645	0.721	-0.125
Mof_C 	C 	0.7038	0.1078	0.5782	0.408
Mof_C 	C 	0.1501	0.1163	0.1347	0.356
Mof_C 	C 	0.2703	0.1192	0.2646	-0.188
Mof_C 	C 	0.68	0.6501	0.5644	0.402
Mof_C 	C 	0.7949	0.6537	0.6074	-0.095
Mof_C 	C 	0.83	0.5939	0.6722	0.007
Mof_C 	C 	0.9346	0.5913	0.7088	-0.048
Mof_C 	C 	0.0105	0.6466	0.6784	-0.013
Mof_C 	C 	0.9782	0.7079	0.6148	-0.012
Mof_C 	C 	0.8697	0.712	0.5803	-0.005
Mof_C 	C 	0.1281	0.6387	0.714	0.046
Mof_C 	C 	0.1637	0.6293	0.8005	-0.086
Mof_C 	C 	0.0907	0.6337	0.8674	0.37
Mof_C 	C 	0.2702	0.6183	0.828	-0.015
Mof_C 	C 	0.3475	0.6176	0.7729	0.009
Mof_C 	C 	0.3117	0.6266	0.6861	-0.071
Mof_C 	C 	0.3861	0.6227	0.6196	0.38
Mof_C 	C 	0.2027	0.6358	0.6599	-0.041
Mof_C 	C 	0.4654	0.6124	0.809	0.087
Mof_C 	C 	0.4989	0.5536	0.8764	-0.133
Mof_C 	C 	0.6032	0.5498	0.9117	0.069
Mof_C 	C 	0.6794	0.6051	0.881	-0.128
Mof_C 	C 	0.6445	0.6644	0.8149	0.068
Mof_C 	C 	0.5399	0.6645	0.779	-0.136
Mof_C 	C 	0.7962	0.6078	0.9218	0.401
Mof_C 	C 	0.3499	0.6163	0.3653	0.387
Mof_C 	C 	0.2297	0.6192	0.2354	-0.21
Mof_C 	C 	0.18	0.8499	0.0644	0.409
Mof_C 	C 	0.2949	0.8463	0.1074	-0.138
Mof_C 	C 	0.33	0.9061	0.1722	0.063
Mof_C 	C 	0.4346	0.9087	0.2088	-0.125
Mof_C 	C 	0.5105	0.8534	0.1784	0.078
Mof_C 	C 	0.4782	0.7921	0.1148	-0.131
Mof_C 	C 	0.3697	0.788	0.0803	0.062
Mof_C 	C 	0.6281	0.8613	0.214	0.013
Mof_C 	C 	0.6637	0.8707	0.3005	-0.07
Mof_C 	C 	0.5907	0.8663	0.3674	0.36
Mof_C 	C 	0.7702	0.8817	0.328	-0.024
Mof_C 	C 	0.8475	0.8824	0.2729	0.014
Mof_C 	C 	0.8117	0.8734	0.1861	-0.075
Mof_C 	C 	0.8861	0.8773	0.1196	0.376
Mof_C 	C 	0.7027	0.8642	0.1599	-0.022
Mof_C 	C 	0.9654	0.8876	0.309	0.1
Mof_C 	C 	0.9989	0.9464	0.3764	-0.097
Mof_C 	C 	0.1032	0.9502	0.4117	0.034
Mof_C 	C 	0.1794	0.8949	0.381	-0.114
Mof_C 	C 	0.1445	0.8356	0.3149	0.066
Mof_C 	C 	0.0399	0.8355	0.279	-0.158
Mof_C 	C 	0.2962	0.8922	0.4218	0.392
Mof_C 	C 	0.8499	0.8837	0.8653	0.395
Mof_C 	C 	0.7297	0.8808	0.7354	-0.263
Mof_C 	C 	0.32	0.3499	0.4356	0.444
Mof_C 	C 	0.2051	0.3463	0.3926	-0.21
Mof_C 	C 	0.17	0.4061	0.3278	0.149
Mof_C 	C 	0.0654	0.4087	0.2912	-0.246
Mof_C 	C 	0.9895	0.3534	0.3216	0.203
Mof_C 	C 	0.0218	0.2921	0.3852	-0.291
Mof_C 	C 	0.1303	0.288	0.4197	0.159
Mof_C 	C 	0.8719	0.3613	0.286	-0.036
Mof_C 	C 	0.8363	0.3707	0.1995	-0.06
Mof_C 	C 	0.9093	0.3663	0.1326	0.351
Mof_C 	C 	0.7298	0.3817	0.172	-0.04
Mof_C 	C 	0.6525	0.3824	0.2271	0.015
Mof_C 	C 	0.6883	0.3734	0.3139	-0.097
Mof_C 	C 	0.6139	0.3773	0.3804	0.389
Mof_C 	C 	0.7973	0.3642	0.3401	0.003
Mof_C 	C 	0.5346	0.3876	0.191	0.072
Mof_C 	C 	0.5011	0.4464	0.1236	-0.14
Mof_C 	C 	0.3968	0.4502	0.0883	0.062
Mof_C 	C 	0.3206	0.3949	0.119	-0.142
Mof_C 	C 	0.3555	0.3356	0.1851	0.061
Mof_C 	C 	0.4601	0.3355	0.221	-0.139
Mof_C 	C 	0.2038	0.3922	0.0782	0.394
Mof_C 	C 	0.6501	0.3837	0.6347	0.384
Mof_C 	C 	0.7703	0.3808	0.7646	-0.235
Mof_N 	N 	0.1879	0.1162	0.1928	-0.238
Mof_N 	N 	0.3121	0.6162	0.3072	-0.23
Mof_N 	N 	0.8121	0.8838	0.8072	-0.208
Mof_N 	N 	0.6879	0.3838	0.6928	-0.226
Mof_O 	O 	0.8607	0.2243	0.9588	-0.35
Mof_O 	O 	0.8605	0.0753	0.9455	-0.356
Mof_O 	O 	0.4544	0.2081	0.6234	-0.364
Mof_O 	O 	0.4187	0.0645	0.5901	-0.405
Mof_O 	O 	0.0962	0.1959	0.9139	-0.351
Mof_O 	O 	0.0809	0.0468	0.8987	-0.342
Mof_O 	O 	0.66	0.0351	0.5593	-0.416
Mof_O 	O 	0.665	0.1852	0.5667	-0.402
Mof_O 	O 	0.072	0.1178	0.0795	-0.441
Mof_O 	O 	0.6393	0.7243	0.5412	-0.394
Mof_O 	O 	0.6395	0.5753	0.5545	-0.396
Mof_O 	O 	0.0456	0.7081	0.8766	-0.363
Mof_O 	O 	0.0813	0.5645	0.9099	-0.36
Mof_O 	O 	0.4038	0.6959	0.5861	-0.391
Mof_O 	O 	0.4191	0.5468	0.6013	-0.372
Mof_O 	O 	0.84	0.5351	0.9407	-0.358
Mof_O 	O 	0.835	0.6852	0.9333	-0.39
Mof_O 	O 	0.428	0.6178	0.4205	-0.439
Mof_O 	O 	0.1393	0.7757	0.0412	-0.435
Mof_O 	O 	0.1395	0.9247	0.0545	-0.363
Mof_O 	O 	0.5456	0.7919	0.3766	-0.359
Mof_O 	O 	0.5813	0.9355	0.4099	-0.352
Mof_O 	O 	0.9038	0.8041	0.0861	-0.412
Mof_O 	O 	0.9191	0.9532	0.1013	-0.317
Mof_O 	O 	0.34	0.9649	0.4407	-0.348
Mof_O 	O 	0.335	0.8148	0.4333	-0.391
Mof_O 	O 	0.928	0.8822	0.9205	-0.378
Mof_O 	O 	0.3607	0.2757	0.4588	-0.412
Mof_O 	O 	0.3605	0.4247	0.4455	-0.408
Mof_O 	O 	0.9544	0.2919	0.1234	-0.345
Mof_O 	O 	0.9187	0.4355	0.0901	-0.38
Mof_O 	O 	0.5962	0.3041	0.4139	-0.401
Mof_O 	O 	0.5809	0.4532	0.3987	-0.373
Mof_O 	O 	0.16	0.4649	0.0593	-0.402
Mof_O 	O 	0.165	0.3148	0.0667	-0.403
Mof_O 	O 	0.572	0.3822	0.5795	-0.437
_end
