# CIF file generated by openbabel 3.1.0, see https://openbabel.org
data_I
_chemical_name_common 'image0'
_cell_length_a 16.1895
_cell_length_b 16.1895
_cell_length_c 10.0036
_cell_angle_alpha 90
_cell_angle_beta 90
_cell_angle_gamma 120
_space_group_name_H-M_alt 'P 1'
_space_group_name_Hall 'P 1'
loop_
    _symmetry_equiv_pos_as_xyz
    x,y,z
loop_
    _atom_site_label
    _atom_site_type_symbol
    _atom_site_fract_x
    _atom_site_fract_y
    _atom_site_fract_z
    _atom_site_occupancy
    P1       P        0.60420    0.45110    0.06320    1.000
    P2       P        0.20360    0.47150    0.45050    1.000
    O1       O        0.65840    0.44140    0.17400    1.000
    O2       O        0.63590    0.42740    0.93730    1.000
    O3       O        0.62190    0.55180    0.05910    1.000
    O4       O        0.21580    0.54050    0.56000    1.000
    O5       O        0.25070    0.52450    0.32900    1.000
    O6       O        0.10130    0.40180    0.42780    1.000
    N1       N        0.41590    0.38390    0.17710    1.000
    N2       N        0.32210    0.38350    0.41740    1.000
    C1       C        0.47500    0.36000    0.08900    1.000
    C2       C        0.33060    0.29460    0.22580    1.000
    C3       C        0.26930    0.31690    0.30740    1.000
    C4       C        0.25930    0.39990    0.51010    1.000
    C5       C        0.41180    0.46810    0.37960    1.000
    C6       C        0.46900    0.45530    0.27870    1.000
    C7       C        0.18910    0.23010    0.36650    1.000
    C8       C        0.27810    0.24090    0.10360    1.000
    P3       P        0.54890    0.15310    0.06320    1.000
    P4       P        0.52850    0.73210    0.45050    1.000
    O7       O        0.55860    0.21700    0.17400    1.000
    O8       O        0.57260    0.20850    0.93730    1.000
    O9       O        0.44820    0.07010    0.05910    1.000
    O10      O        0.45950    0.67530    0.56000    1.000
    O11      O        0.47550    0.72620    0.32900    1.000
    O12      O        0.59820    0.69950    0.42780    1.000
    N3       N        0.61610    0.03200    0.17710    1.000
    N4       N        0.61650    0.93860    0.41740    1.000
    C9       C        0.64000    0.11500    0.08900    1.000
    C10      C        0.70540    0.03600    0.22580    1.000
    C11      C        0.68310    0.95240    0.30740    1.000
    C12      C        0.60010    0.85940    0.51010    1.000
    C13      C        0.53190    0.94370    0.37960    1.000
    C14      C        0.54470    0.01370    0.27870    1.000
    C15      C        0.76990    0.95900    0.36650    1.000
    C16      C        0.75910    0.03720    0.10360    1.000
    P5       P        0.84690    0.39580    0.06320    1.000
    P6       P        0.26790    0.79640    0.45050    1.000
    O13      O        0.78300    0.34160    0.17400    1.000
    O14      O        0.79150    0.36410    0.93730    1.000
    O15      O        0.92990    0.37810    0.05910    1.000
    O16      O        0.32470    0.78420    0.56000    1.000
    O17      O        0.27380    0.74930    0.32900    1.000
    O18      O        0.30050    0.89870    0.42780    1.000
    N5       N        0.96800    0.58410    0.17710    1.000
    N6       N        0.06140    0.67790    0.41740    1.000
    C17      C        0.88500    0.52500    0.08900    1.000
    C18      C        0.96400    0.66940    0.22580    1.000
    C19      C        0.04760    0.73070    0.30740    1.000
    C20      C        0.14060    0.74070    0.51010    1.000
    C21      C        0.05630    0.58820    0.37960    1.000
    C22      C        0.98630    0.53100    0.27870    1.000
    C23      C        0.04100    0.81090    0.36650    1.000
    C24      C        0.96280    0.72190    0.10360    1.000
    P7       P        0.39580    0.54890    0.93680    1.000
    P8       P        0.79640    0.52850    0.54950    1.000
    O19      O        0.34160    0.55860    0.82600    1.000
    O20      O        0.36410    0.57260    0.06270    1.000
    O21      O        0.37810    0.44820    0.94090    1.000
    O22      O        0.78420    0.45950    0.44000    1.000
    O23      O        0.74930    0.47550    0.67100    1.000
    O24      O        0.89870    0.59820    0.57220    1.000
    N7       N        0.58410    0.61610    0.82290    1.000
    N8       N        0.67790    0.61650    0.58260    1.000
    C25      C        0.52500    0.64000    0.91100    1.000
    C26      C        0.66940    0.70540    0.77420    1.000
    C27      C        0.73070    0.68310    0.69260    1.000
    C28      C        0.74070    0.60010    0.48990    1.000
    C29      C        0.58820    0.53190    0.62040    1.000
    C30      C        0.53100    0.54470    0.72130    1.000
    C31      C        0.81090    0.76990    0.63350    1.000
    C32      C        0.72190    0.75910    0.89640    1.000
    P9       P        0.45110    0.84690    0.93680    1.000
    P10      P        0.47150    0.26790    0.54950    1.000
    O25      O        0.44140    0.78300    0.82600    1.000
    O26      O        0.42740    0.79150    0.06270    1.000
    O27      O        0.55180    0.92990    0.94090    1.000
    O28      O        0.54050    0.32470    0.44000    1.000
    O29      O        0.52450    0.27380    0.67100    1.000
    O30      O        0.40180    0.30050    0.57220    1.000
    N9       N        0.38390    0.96800    0.82290    1.000
    N10      N        0.38350    0.06140    0.58260    1.000
    C33      C        0.36000    0.88500    0.91100    1.000
    C34      C        0.29460    0.96400    0.77420    1.000
    C35      C        0.31690    0.04760    0.69260    1.000
    C36      C        0.39990    0.14060    0.48990    1.000
    C37      C        0.46810    0.05630    0.62040    1.000
    C38      C        0.45530    0.98630    0.72130    1.000
    C39      C        0.23010    0.04100    0.63350    1.000
    C40      C        0.24090    0.96280    0.89640    1.000
    P11      P        0.15310    0.60420    0.93680    1.000
    P12      P        0.73210    0.20360    0.54950    1.000
    O31      O        0.21700    0.65840    0.82600    1.000
    O32      O        0.20850    0.63590    0.06270    1.000
    O33      O        0.07010    0.62190    0.94090    1.000
    O34      O        0.67530    0.21580    0.44000    1.000
    O35      O        0.72620    0.25070    0.67100    1.000
    O36      O        0.69950    0.10130    0.57220    1.000
    N11      N        0.03200    0.41590    0.82290    1.000
    N12      N        0.93860    0.32210    0.58260    1.000
    C41      C        0.11500    0.47500    0.91100    1.000
    C42      C        0.03600    0.33060    0.77420    1.000
    C43      C        0.95240    0.26930    0.69260    1.000
    C44      C        0.85940    0.25930    0.48990    1.000
    C45      C        0.94370    0.41180    0.62040    1.000
    C46      C        0.01370    0.46900    0.72130    1.000
    C47      C        0.95900    0.18910    0.63350    1.000
    C48      C        0.03720    0.27810    0.89640    1.000
    Y1       Y        0.66667    0.33333    0.30810    1.000
    Y2       Y        0.66667    0.33333    0.79470    1.000
    Y3       Y        0.33333    0.66667    0.69190    1.000
    Y4       Y        0.33333    0.66667    0.20530    1.000
