data_functionalizedCrystal
_audit_creation_method	'EQeq! by Chris Wilmer'
_symmetry_space_group_name_H-M	'P1'
_symmetry_Int_Tables_number	1
_symmetry_cell_setting	triclinic
loop_
_symmetry_equiv_pos_as_xyz
  x,y,z
_cell_length_a	8.2881
_cell_length_b	8.2881
_cell_length_c	10.566
_cell_angle_alpha	90
_cell_angle_beta	90
_cell_angle_gamma	120
loop_
_atom_site_label
_atom_site_type_symbol
_atom_site_fract_x
_atom_site_fract_y
_atom_site_fract_z
_atom_site_charge
Mof_Zn	Zn	0.58351	0.86864	0.99537	1.153
Mof_O 	O 	0.7519	0.8086	0.1132	-0.981
Mof_H 	H 	0.686	0.765	0.18	0.196
Mof_O 	O 	0.5222	0.6253	0.9103	-0.953
Mof_H 	H 	0.538	0.62	0.831	0.238
Mof_H 	H 	0.1189	0.0907	0.3785	0.152
Mof_H 	H 	0.9247	0.048	0.3785	0.702
Mof_C 	C 	0.955	0.857	0.4472	3.222
Mof_H 	H 	0.0687	0.8599	0.4793	-1.57
Mof_H 	H 	0.8711	0.7326	0.4102	-0.64
Mof_Zn	Zn	0.13136	0.71487	0.99537	1.196
Mof_O 	O 	0.1914	0.9433	0.1132	-0.925
Mof_H 	H 	0.235	0.921	0.18	0.205
Mof_O 	O 	0.3747	0.8969	0.9103	-0.977
Mof_H 	H 	0.38	0.918	0.831	0.241
Mof_H 	H 	0.9093	0.0282	0.3785	0.691
Mof_H 	H 	0.952	0.8767	0.3785	-0.611
Mof_C 	C 	0.143	0.098	0.4472	-0.527
Mof_H 	H 	0.1401	0.2088	0.4793	1.119
Mof_H 	H 	0.2674	0.1385	0.4102	0.099
Mof_Zn	Zn	0.28513	0.41649	0.99537	1.177
Mof_O 	O 	0.0567	0.2481	0.1132	-0.874
Mof_H 	H 	0.079	0.314	0.18	0.173
Mof_O 	O 	0.1031	0.4778	0.9103	-0.915
Mof_H 	H 	0.082	0.462	0.831	0.235
Mof_H 	H 	0.9718	0.8811	0.3785	-0.624
Mof_H 	H 	0.1233	0.0753	0.3785	0.094
Mof_C 	C 	0.902	0.045	0.4472	-3.499
Mof_H 	H 	0.7912	0.9313	0.4793	0.839
Mof_H 	H 	0.8615	0.1289	0.4102	0.408
Mof_Zn	Zn	0.41649	0.13136	0.00463	1.197
Mof_O 	O 	0.2481	0.1914	0.8868	-0.884
Mof_H 	H 	0.314	0.235	0.82	0.187
Mof_O 	O 	0.4778	0.3747	0.0897	-0.938
Mof_H 	H 	0.462	0.38	0.169	0.24
Mof_H 	H 	0.8811	0.9093	0.6215	-0.009
Mof_H 	H 	0.0753	0.952	0.6215	-0.566
Mof_C 	C 	0.045	0.143	0.5528	-3.679
Mof_H 	H 	0.9313	0.1401	0.5207	1.831
Mof_H 	H 	0.1289	0.2674	0.5898	0.536
Mof_Zn	Zn	0.86864	0.28513	0.00463	1.151
Mof_O 	O 	0.8086	0.0567	0.8868	-0.908
Mof_H 	H 	0.765	0.079	0.82	0.176
Mof_O 	O 	0.6253	0.1031	0.0897	-0.924
Mof_H 	H 	0.62	0.082	0.169	0.235
Mof_H 	H 	0.0907	0.9718	0.6215	-0.532
Mof_H 	H 	0.048	0.1233	0.6215	0.715
Mof_C 	C 	0.857	0.902	0.5528	-0.003
Mof_H 	H 	0.8599	0.7912	0.5207	-0.88
Mof_H 	H 	0.7326	0.8615	0.5898	-0.19
Mof_Zn	Zn	0.71487	0.58351	0.00463	1.177
Mof_O 	O 	0.9433	0.7519	0.8868	-0.988
Mof_H 	H 	0.921	0.686	0.82	0.211
Mof_O 	O 	0.8969	0.5222	0.0897	-0.983
Mof_H 	H 	0.918	0.538	0.169	0.24
Mof_H 	H 	0.0282	0.1189	0.6215	0.755
Mof_H 	H 	0.8767	0.9247	0.6215	0.029
Mof_C 	C 	0.098	0.955	0.5528	2.904
Mof_H 	H 	0.2088	0.0687	0.5207	-0.566
Mof_H 	H 	0.1385	0.8711	0.5898	-0.483
Mof_Zn	Zn	-2.51003e-33	-5.02006e-33	0.16974	1.232
Mof_N 	N 	5.02006e-33	0	0.3571	-0.28
Mof_Zn	Zn	1.00401e-32	0	0.83026	1.232
Mof_N 	N 	1.00401e-32	0	0.6429	-0.279
_end
