# CIF file generated by openbabel 3.1.0, see https://openbabel.org
data_I
_chemical_name_common 'image0'
_cell_length_a 19.265
_cell_length_b 19.265
_cell_length_c 15.913
_cell_angle_alpha 90
_cell_angle_beta 90
_cell_angle_gamma 90
_space_group_name_H-M_alt 'P 1'
_space_group_name_Hall 'P 1'
loop_
    _symmetry_equiv_pos_as_xyz
    x,y,z
loop_
    _atom_site_label
    _atom_site_type_symbol
    _atom_site_fract_x
    _atom_site_fract_y
    _atom_site_fract_z
    _atom_site_occupancy
    N1       N        0.70370    0.31350    0.55740    1.000
    O1       O        0.59620    0.23990    0.82140    1.000
    O2       O        0.54500    0.31420    0.73820    1.000
    C1       C        0.59530    0.27830    0.75810    1.000
    C2       C        0.65940    0.27900    0.70310    1.000
    C3       C        0.64440    0.31610    0.62090    1.000
    C4       C        0.71980    0.24010    0.53060    1.000
    C5       C        0.67970    0.35250    0.48300    1.000
    C6       C        0.76860    0.34540    0.58970    1.000
    N2       N        0.20370    0.81350    0.05740    1.000
    O3       O        0.09620    0.73990    0.32140    1.000
    O4       O        0.04500    0.81420    0.23820    1.000
    C7       C        0.09530    0.77830    0.25810    1.000
    C8       C        0.15940    0.77900    0.20310    1.000
    C9       C        0.14440    0.81610    0.12090    1.000
    C10      C        0.21980    0.74010    0.03060    1.000
    C11      C        0.17970    0.85250    0.98300    1.000
    C12      C        0.26860    0.84540    0.08970    1.000
    N3       N        0.79630    0.68650    0.05740    1.000
    O5       O        0.90380    0.76010    0.32140    1.000
    O6       O        0.95500    0.68580    0.23820    1.000
    C13      C        0.90470    0.72170    0.25810    1.000
    C14      C        0.84060    0.72100    0.20310    1.000
    C15      C        0.85560    0.68390    0.12090    1.000
    C16      C        0.78020    0.75990    0.03060    1.000
    C17      C        0.82030    0.64750    0.98300    1.000
    C18      C        0.73140    0.65460    0.08970    1.000
    N4       N        0.29630    0.18650    0.55740    1.000
    O7       O        0.40380    0.26010    0.82140    1.000
    O8       O        0.45500    0.18580    0.73820    1.000
    C19      C        0.40470    0.22170    0.75810    1.000
    C20      C        0.34060    0.22100    0.70310    1.000
    C21      C        0.35560    0.18390    0.62090    1.000
    C22      C        0.28020    0.25990    0.53060    1.000
    C23      C        0.32030    0.14750    0.48300    1.000
    C24      C        0.23140    0.15460    0.58970    1.000
    N5       N        0.93650    0.45370    0.80740    1.000
    O9       O        0.01010    0.34620    0.07140    1.000
    O10      O        0.93580    0.29500    0.98820    1.000
    C25      C        0.97170    0.34530    0.00810    1.000
    C26      C        0.97100    0.40940    0.95310    1.000
    C27      C        0.93390    0.39440    0.87090    1.000
    C28      C        0.00990    0.46980    0.78060    1.000
    C29      C        0.89750    0.42970    0.73300    1.000
    C30      C        0.90460    0.51860    0.83970    1.000
    N6       N        0.43650    0.95370    0.30740    1.000
    O11      O        0.51010    0.84620    0.57140    1.000
    O12      O        0.43580    0.79500    0.48820    1.000
    C31      C        0.47170    0.84530    0.50810    1.000
    C32      C        0.47100    0.90940    0.45310    1.000
    C33      C        0.43390    0.89440    0.37090    1.000
    C34      C        0.50990    0.96980    0.28060    1.000
    C35      C        0.39750    0.92970    0.23300    1.000
    C36      C        0.40460    0.01860    0.33970    1.000
    N7       N        0.56350    0.54630    0.30740    1.000
    O13      O        0.48990    0.65380    0.57140    1.000
    O14      O        0.56420    0.70500    0.48820    1.000
    C37      C        0.52830    0.65470    0.50810    1.000
    C38      C        0.52900    0.59060    0.45310    1.000
    C39      C        0.56610    0.60560    0.37090    1.000
    C40      C        0.49010    0.53020    0.28060    1.000
    C41      C        0.60250    0.57030    0.23300    1.000
    C42      C        0.59540    0.48140    0.33970    1.000
    N8       N        0.06350    0.04630    0.80740    1.000
    O15      O        0.98990    0.15380    0.07140    1.000
    O16      O        0.06420    0.20500    0.98820    1.000
    C43      C        0.02830    0.15470    0.00810    1.000
    C44      C        0.02900    0.09060    0.95310    1.000
    C45      C        0.06610    0.10560    0.87090    1.000
    C46      C        0.99010    0.03020    0.78060    1.000
    C47      C        0.10250    0.07030    0.73300    1.000
    C48      C        0.09540    0.98140    0.83970    1.000
    N9       N        0.79630    0.31350    0.44260    1.000
    O17      O        0.90380    0.23990    0.17860    1.000
    O18      O        0.95500    0.31420    0.26180    1.000
    C49      C        0.90470    0.27830    0.24190    1.000
    C50      C        0.84060    0.27900    0.29690    1.000
    C51      C        0.85560    0.31610    0.37910    1.000
    C52      C        0.78020    0.24010    0.46940    1.000
    C53      C        0.82030    0.35250    0.51700    1.000
    C54      C        0.73140    0.34540    0.41030    1.000
    N10      N        0.29630    0.81350    0.94260    1.000
    O19      O        0.40380    0.73990    0.67860    1.000
    O20      O        0.45500    0.81420    0.76180    1.000
    C55      C        0.40470    0.77830    0.74190    1.000
    C56      C        0.34060    0.77900    0.79690    1.000
    C57      C        0.35560    0.81610    0.87910    1.000
    C58      C        0.28020    0.74010    0.96940    1.000
    C59      C        0.32030    0.85250    0.01700    1.000
    C60      C        0.23140    0.84540    0.91030    1.000
    N11      N        0.70370    0.68650    0.94260    1.000
    O21      O        0.59620    0.76010    0.67860    1.000
    O22      O        0.54500    0.68580    0.76180    1.000
    C61      C        0.59530    0.72170    0.74190    1.000
    C62      C        0.65940    0.72100    0.79690    1.000
    C63      C        0.64440    0.68390    0.87910    1.000
    C64      C        0.71980    0.75990    0.96940    1.000
    C65      C        0.67970    0.64750    0.01700    1.000
    C66      C        0.76860    0.65460    0.91030    1.000
    N12      N        0.20370    0.18650    0.44260    1.000
    O23      O        0.09620    0.26010    0.17860    1.000
    O24      O        0.04500    0.18580    0.26180    1.000
    C67      C        0.09530    0.22170    0.24190    1.000
    C68      C        0.15940    0.22100    0.29690    1.000
    C69      C        0.14440    0.18390    0.37910    1.000
    C70      C        0.21980    0.25990    0.46940    1.000
    C71      C        0.17970    0.14750    0.51700    1.000
    C72      C        0.26860    0.15460    0.41030    1.000
    N13      N        0.56350    0.45370    0.19260    1.000
    O25      O        0.48990    0.34620    0.92860    1.000
    O26      O        0.56420    0.29500    0.01180    1.000
    C73      C        0.52830    0.34530    0.99190    1.000
    C74      C        0.52900    0.40940    0.04690    1.000
    C75      C        0.56610    0.39440    0.12910    1.000
    C76      C        0.49010    0.46980    0.21940    1.000
    C77      C        0.60250    0.42970    0.26700    1.000
    C78      C        0.59540    0.51860    0.16030    1.000
    N14      N        0.06350    0.95370    0.69260    1.000
    O27      O        0.98990    0.84620    0.42860    1.000
    O28      O        0.06420    0.79500    0.51180    1.000
    C79      C        0.02830    0.84530    0.49190    1.000
    C80      C        0.02900    0.90940    0.54690    1.000
    C81      C        0.06610    0.89440    0.62910    1.000
    C82      C        0.99010    0.96980    0.71940    1.000
    C83      C        0.10250    0.92970    0.76700    1.000
    C84      C        0.09540    0.01860    0.66030    1.000
    N15      N        0.93650    0.54630    0.69260    1.000
    O29      O        0.01010    0.65380    0.42860    1.000
    O30      O        0.93580    0.70500    0.51180    1.000
    C85      C        0.97170    0.65470    0.49190    1.000
    C86      C        0.97100    0.59060    0.54690    1.000
    C87      C        0.93390    0.60560    0.62910    1.000
    C88      C        0.00990    0.53020    0.71940    1.000
    C89      C        0.89750    0.57030    0.76700    1.000
    C90      C        0.90460    0.48140    0.66030    1.000
    N16      N        0.43650    0.04630    0.19260    1.000
    O31      O        0.51010    0.15380    0.92860    1.000
    O32      O        0.43580    0.20500    0.01180    1.000
    C91      C        0.47170    0.15470    0.99190    1.000
    C92      C        0.47100    0.09060    0.04690    1.000
    C93      C        0.43390    0.10560    0.12910    1.000
    C94      C        0.50990    0.03020    0.21940    1.000
    C95      C        0.39750    0.07030    0.26700    1.000
    C96      C        0.40460    0.98140    0.16030    1.000
    Zn1      Zn       0.50000    0.25000    0.87500    1.000
    Zn2      Zn       0.00000    0.75000    0.37500    1.000
    Zn3      Zn       0.00000    0.25000    0.12500    1.000
    Zn4      Zn       0.50000    0.75000    0.62500    1.000
    N17      N        0.29630    0.68650    0.44260    1.000
    O33      O        0.40380    0.76010    0.17860    1.000
    O34      O        0.45500    0.68580    0.26180    1.000
    C97      C        0.40470    0.72170    0.24190    1.000
    C98      C        0.34060    0.72100    0.29690    1.000
    C99      C        0.35560    0.68390    0.37910    1.000
    C100     C        0.28020    0.75990    0.46940    1.000
    C101     C        0.32030    0.64750    0.51700    1.000
    C102     C        0.23140    0.65460    0.41030    1.000
    N18      N        0.79630    0.18650    0.94260    1.000
    O35      O        0.90380    0.26010    0.67860    1.000
    O36      O        0.95500    0.18580    0.76180    1.000
    C103     C        0.90470    0.22170    0.74190    1.000
    C104     C        0.84060    0.22100    0.79690    1.000
    C105     C        0.85560    0.18390    0.87910    1.000
    C106     C        0.78020    0.25990    0.96940    1.000
    C107     C        0.82030    0.14750    0.01700    1.000
    C108     C        0.73140    0.15460    0.91030    1.000
    N19      N        0.20370    0.31350    0.94260    1.000
    O37      O        0.09620    0.23990    0.67860    1.000
    O38      O        0.04500    0.31420    0.76180    1.000
    C109     C        0.09530    0.27830    0.74190    1.000
    C110     C        0.15940    0.27900    0.79690    1.000
    C111     C        0.14440    0.31610    0.87910    1.000
    C112     C        0.21980    0.24010    0.96940    1.000
    C113     C        0.17970    0.35250    0.01700    1.000
    C114     C        0.26860    0.34540    0.91030    1.000
    N20      N        0.70370    0.81350    0.44260    1.000
    O39      O        0.59620    0.73990    0.17860    1.000
    O40      O        0.54500    0.81420    0.26180    1.000
    C115     C        0.59530    0.77830    0.24190    1.000
    C116     C        0.65940    0.77900    0.29690    1.000
    C117     C        0.64440    0.81610    0.37910    1.000
    C118     C        0.71980    0.74010    0.46940    1.000
    C119     C        0.67970    0.85250    0.51700    1.000
    C120     C        0.76860    0.84540    0.41030    1.000
    N21      N        0.06350    0.54630    0.19260    1.000
    O41      O        0.98990    0.65380    0.92860    1.000
    O42      O        0.06420    0.70500    0.01180    1.000
    C121     C        0.02830    0.65470    0.99190    1.000
    C122     C        0.02900    0.59060    0.04690    1.000
    C123     C        0.06610    0.60560    0.12910    1.000
    C124     C        0.99010    0.53020    0.21940    1.000
    C125     C        0.10250    0.57030    0.26700    1.000
    C126     C        0.09540    0.48140    0.16030    1.000
    N22      N        0.56350    0.04630    0.69260    1.000
    O43      O        0.48990    0.15380    0.42860    1.000
    O44      O        0.56420    0.20500    0.51180    1.000
    C127     C        0.52830    0.15470    0.49190    1.000
    C128     C        0.52900    0.09060    0.54690    1.000
    C129     C        0.56610    0.10560    0.62910    1.000
    C130     C        0.49010    0.03020    0.71940    1.000
    C131     C        0.60250    0.07030    0.76700    1.000
    C132     C        0.59540    0.98140    0.66030    1.000
    N23      N        0.43650    0.45370    0.69260    1.000
    O45      O        0.51010    0.34620    0.42860    1.000
    O46      O        0.43580    0.29500    0.51180    1.000
    C133     C        0.47170    0.34530    0.49190    1.000
    C134     C        0.47100    0.40940    0.54690    1.000
    C135     C        0.43390    0.39440    0.62910    1.000
    C136     C        0.50990    0.46980    0.71940    1.000
    C137     C        0.39750    0.42970    0.76700    1.000
    C138     C        0.40460    0.51860    0.66030    1.000
    N24      N        0.93650    0.95370    0.19260    1.000
    O47      O        0.01010    0.84620    0.92860    1.000
    O48      O        0.93580    0.79500    0.01180    1.000
    C139     C        0.97170    0.84530    0.99190    1.000
    C140     C        0.97100    0.90940    0.04690    1.000
    C141     C        0.93390    0.89440    0.12910    1.000
    C142     C        0.00990    0.96980    0.21940    1.000
    C143     C        0.89750    0.92970    0.26700    1.000
    C144     C        0.90460    0.01860    0.16030    1.000
    N25      N        0.20370    0.68650    0.55740    1.000
    O49      O        0.09620    0.76010    0.82140    1.000
    O50      O        0.04500    0.68580    0.73820    1.000
    C145     C        0.09530    0.72170    0.75810    1.000
    C146     C        0.15940    0.72100    0.70310    1.000
    C147     C        0.14440    0.68390    0.62090    1.000
    C148     C        0.21980    0.75990    0.53060    1.000
    C149     C        0.17970    0.64750    0.48300    1.000
    C150     C        0.26860    0.65460    0.58970    1.000
    N26      N        0.70370    0.18650    0.05740    1.000
    O51      O        0.59620    0.26010    0.32140    1.000
    O52      O        0.54500    0.18580    0.23820    1.000
    C151     C        0.59530    0.22170    0.25810    1.000
    C152     C        0.65940    0.22100    0.20310    1.000
    C153     C        0.64440    0.18390    0.12090    1.000
    C154     C        0.71980    0.25990    0.03060    1.000
    C155     C        0.67970    0.14750    0.98300    1.000
    C156     C        0.76860    0.15460    0.08970    1.000
    N27      N        0.29630    0.31350    0.05740    1.000
    O53      O        0.40380    0.23990    0.32140    1.000
    O54      O        0.45500    0.31420    0.23820    1.000
    C157     C        0.40470    0.27830    0.25810    1.000
    C158     C        0.34060    0.27900    0.20310    1.000
    C159     C        0.35560    0.31610    0.12090    1.000
    C160     C        0.28020    0.24010    0.03060    1.000
    C161     C        0.32030    0.35250    0.98300    1.000
    C162     C        0.23140    0.34540    0.08970    1.000
    N28      N        0.79630    0.81350    0.55740    1.000
    O55      O        0.90380    0.73990    0.82140    1.000
    O56      O        0.95500    0.81420    0.73820    1.000
    C163     C        0.90470    0.77830    0.75810    1.000
    C164     C        0.84060    0.77900    0.70310    1.000
    C165     C        0.85560    0.81610    0.62090    1.000
    C166     C        0.78020    0.74010    0.53060    1.000
    C167     C        0.82030    0.85250    0.48300    1.000
    C168     C        0.73140    0.84540    0.58970    1.000
    N29      N        0.43650    0.54630    0.80740    1.000
    O57      O        0.51010    0.65380    0.07140    1.000
    O58      O        0.43580    0.70500    0.98820    1.000
    C169     C        0.47170    0.65470    0.00810    1.000
    C170     C        0.47100    0.59060    0.95310    1.000
    C171     C        0.43390    0.60560    0.87090    1.000
    C172     C        0.50990    0.53020    0.78060    1.000
    C173     C        0.39750    0.57030    0.73300    1.000
    C174     C        0.40460    0.48140    0.83970    1.000
    N30      N        0.93650    0.04630    0.30740    1.000
    O59      O        0.01010    0.15380    0.57140    1.000
    O60      O        0.93580    0.20500    0.48820    1.000
    C175     C        0.97170    0.15470    0.50810    1.000
    C176     C        0.97100    0.09060    0.45310    1.000
    C177     C        0.93390    0.10560    0.37090    1.000
    C178     C        0.00990    0.03020    0.28060    1.000
    C179     C        0.89750    0.07030    0.23300    1.000
    C180     C        0.90460    0.98140    0.33970    1.000
    N31      N        0.06350    0.45370    0.30740    1.000
    O61      O        0.98990    0.34620    0.57140    1.000
    O62      O        0.06420    0.29500    0.48820    1.000
    C181     C        0.02830    0.34530    0.50810    1.000
    C182     C        0.02900    0.40940    0.45310    1.000
    C183     C        0.06610    0.39440    0.37090    1.000
    C184     C        0.99010    0.46980    0.28060    1.000
    C185     C        0.10250    0.42970    0.23300    1.000
    C186     C        0.09540    0.51860    0.33970    1.000
    N32      N        0.56350    0.95370    0.80740    1.000
    O63      O        0.48990    0.84620    0.07140    1.000
    O64      O        0.56420    0.79500    0.98820    1.000
    C187     C        0.52830    0.84530    0.00810    1.000
    C188     C        0.52900    0.90940    0.95310    1.000
    C189     C        0.56610    0.89440    0.87090    1.000
    C190     C        0.49010    0.96980    0.78060    1.000
    C191     C        0.60250    0.92970    0.73300    1.000
    C192     C        0.59540    0.01860    0.83970    1.000
    Zn5      Zn       0.50000    0.75000    0.12500    1.000
    Zn6      Zn       0.00000    0.25000    0.62500    1.000
    Zn7      Zn       0.00000    0.75000    0.87500    1.000
    Zn8      Zn       0.50000    0.25000    0.37500    1.000
