data_functionalizedCrystal
_audit_creation_method	'EQeq! by Chris Wilmer'
_symmetry_space_group_name_H-M	'P1'
_symmetry_Int_Tables_number	1
_symmetry_cell_setting	triclinic
loop_
_symmetry_equiv_pos_as_xyz
  x,y,z
_cell_length_a	10.031
_cell_length_b	14.541
_cell_length_c	23.562
_cell_angle_alpha	90
_cell_angle_beta	96.381
_cell_angle_gamma	90
loop_
_atom_site_label
_atom_site_type_symbol
_atom_site_fract_x
_atom_site_fract_y
_atom_site_fract_z
_atom_site_charge
Mof_C 	C 	0.1953	0.4695	0.3451	0.271
Mof_C 	C 	0.0701	0.4254	0.3597	0.037
Mof_C 	C 	0.9459	0.4657	0.3434	-0.081
Mof_H 	H 	0.9407	0.5211	0.3236	0.098
Mof_C 	C 	0.8308	0.423	0.3566	0.036
Mof_C 	C 	0.8388	0.3397	0.3846	-0.174
Mof_H 	H 	0.7607	0.3087	0.391	0.136
Mof_C 	C 	0.9608	0.3027	0.403	0.235
Mof_C 	C 	0.0777	0.3434	0.3902	-0.176
Mof_H 	H 	0.1603	0.3164	0.4017	0.122
Mof_C 	C 	0.6944	0.4676	0.3404	0.301
Mof_C 	C 	0.073	0.1712	0.4459	0.025
Mof_H 	H 	0.1315	0.2068	0.4731	0.048
Mof_H 	H 	0.1197	0.1606	0.4126	0.049
Mof_C 	C 	0.0416	0.0783	0.4727	0.029
Mof_C 	C 	0.9139	0.071	0.4909	-0.086
Mof_H 	H 	0.8557	0.1207	0.485	0.089
Mof_C 	C 	0.1289	0.0047	0.4833	0.026
Mof_C 	C 	0.2705	0.0083	0.4655	-0.027
Mof_H 	H 	0.3201	0.9551	0.4812	0.053
Mof_H 	H 	0.2649	0.0042	0.4242	0.063
Mof_C 	C 	0.3823	0.0962	0.5401	0.199
Mof_C 	C 	0.4331	0.1841	0.5557	-0.137
Mof_H 	H 	0.4415	0.2284	0.5279	0.115
Mof_C 	C 	0.4706	0.2042	0.6133	-0.001
Mof_C 	C 	0.4605	0.1363	0.6538	-0.041
Mof_H 	H 	0.4901	0.1484	0.6919	0.087
Mof_C 	C 	0.4072	0.0506	0.6386	-0.02
Mof_C 	C 	0.3692	0.0325	0.582	-0.137
Mof_H 	H 	0.3334	0.9752	0.5717	0.104
Mof_C 	C 	0.5168	0.2982	0.6328	0.308
Mof_C 	C 	0.395	0.984	0.6845	0.364
Mof_Cd	Cd	0.43808	0.53609	0.31945	0.539
Mof_O 	O 	0.1901	0.5427	0.3181	-0.232
Mof_O 	O 	0.3048	0.4339	0.3631	-0.238
Mof_O 	O 	0.6908	0.5405	0.3159	-0.246
Mof_O 	O 	0.5946	0.4281	0.3525	-0.252
Mof_O 	O 	0.9611	0.2186	0.4307	-0.227
Mof_O 	O 	0.3435	0.0897	0.4837	-0.215
Mof_O 	O 	0.5219	0.3597	0.5985	-0.252
Mof_O 	O 	0.548	0.3119	0.6838	-0.257
Mof_O 	O 	0.4242	0.0034	0.7312	-0.306
Mof_O 	O 	0.3518	0.9059	0.6707	-0.228
Mof_C 	C 	0.8047	0.9695	0.1549	0.271
Mof_C 	C 	0.9299	0.9254	0.1403	0.034
Mof_C 	C 	0.0541	0.9657	0.1566	-0.077
Mof_H 	H 	0.0593	0.0211	0.1764	0.096
Mof_C 	C 	0.1692	0.923	0.1434	0.035
Mof_C 	C 	0.1612	0.8397	0.1154	-0.172
Mof_H 	H 	0.2393	0.8087	0.109	0.136
Mof_C 	C 	0.0392	0.8027	0.097	0.234
Mof_C 	C 	0.9223	0.8434	0.1098	-0.175
Mof_H 	H 	0.8397	0.8164	0.0983	0.122
Mof_C 	C 	0.3056	0.9676	0.1596	0.302
Mof_C 	C 	0.927	0.6712	0.0541	0.024
Mof_H 	H 	0.8685	0.7068	0.0269	0.048
Mof_H 	H 	0.8803	0.6606	0.0874	0.049
Mof_C 	C 	0.9584	0.5783	0.0273	0.029
Mof_C 	C 	0.0861	0.571	0.0091	-0.086
Mof_H 	H 	0.1443	0.6207	0.015	0.089
Mof_C 	C 	0.8711	0.5047	0.0167	0.026
Mof_C 	C 	0.7295	0.5083	0.0345	-0.026
Mof_H 	H 	0.6799	0.4551	0.0188	0.053
Mof_H 	H 	0.7351	0.5042	0.0758	0.063
Mof_C 	C 	0.6177	0.5962	0.9599	0.199
Mof_C 	C 	0.5669	0.6841	0.9443	-0.137
Mof_H 	H 	0.5585	0.7284	0.9721	0.114
Mof_C 	C 	0.5294	0.7042	0.8867	-0.002
Mof_C 	C 	0.5395	0.6363	0.8462	-0.04
Mof_H 	H 	0.5099	0.6484	0.8081	0.087
Mof_C 	C 	0.5928	0.5506	0.8614	-0.02
Mof_C 	C 	0.6308	0.5325	0.918	-0.137
Mof_H 	H 	0.6666	0.4752	0.9283	0.104
Mof_C 	C 	0.4832	0.7982	0.8672	0.308
Mof_C 	C 	0.605	0.484	0.8155	0.365
Mof_Cd	Cd	0.56192	0.03609	0.18055	0.539
Mof_O 	O 	0.8099	0.0427	0.1819	-0.233
Mof_O 	O 	0.6952	0.9339	0.1369	-0.238
Mof_O 	O 	0.3092	0.0405	0.1841	-0.247
Mof_O 	O 	0.4054	0.9281	0.1475	-0.252
Mof_O 	O 	0.0389	0.7186	0.0693	-0.227
Mof_O 	O 	0.6565	0.5897	0.0163	-0.215
Mof_O 	O 	0.4781	0.8597	0.9015	-0.252
Mof_O 	O 	0.452	0.8119	0.8162	-0.257
Mof_O 	O 	0.5758	0.5034	0.7688	-0.306
Mof_O 	O 	0.6482	0.4059	0.8293	-0.228
Mof_C 	C 	0.8047	0.5305	0.6549	0.27
Mof_C 	C 	0.9299	0.5746	0.6403	0.036
Mof_C 	C 	0.0541	0.5343	0.6566	-0.081
Mof_H 	H 	0.0593	0.4789	0.6764	0.098
Mof_C 	C 	0.1692	0.577	0.6434	0.036
Mof_C 	C 	0.1612	0.6603	0.6154	-0.174
Mof_H 	H 	0.2393	0.6913	0.609	0.136
Mof_C 	C 	0.0392	0.6973	0.597	0.235
Mof_C 	C 	0.9223	0.6566	0.6098	-0.176
Mof_H 	H 	0.8397	0.6836	0.5983	0.122
Mof_C 	C 	0.3056	0.5324	0.6596	0.301
Mof_C 	C 	0.927	0.8288	0.5541	0.025
Mof_H 	H 	0.8685	0.7932	0.5269	0.048
Mof_H 	H 	0.8803	0.8394	0.5874	0.049
Mof_C 	C 	0.9584	0.9217	0.5273	0.029
Mof_C 	C 	0.0861	0.929	0.5091	-0.086
Mof_H 	H 	0.1443	0.8793	0.515	0.089
Mof_C 	C 	0.8711	0.9953	0.5167	0.026
Mof_C 	C 	0.7295	0.9917	0.5345	-0.027
Mof_H 	H 	0.6799	0.0449	0.5188	0.053
Mof_H 	H 	0.7351	0.9958	0.5758	0.063
Mof_C 	C 	0.6177	0.9038	0.4599	0.199
Mof_C 	C 	0.5669	0.8159	0.4443	-0.137
Mof_H 	H 	0.5585	0.7716	0.4721	0.115
Mof_C 	C 	0.5294	0.7958	0.3867	-0.001
Mof_C 	C 	0.5395	0.8637	0.3462	-0.041
Mof_H 	H 	0.5099	0.8516	0.3081	0.087
Mof_C 	C 	0.5928	0.9494	0.3614	-0.02
Mof_C 	C 	0.6308	0.9675	0.418	-0.137
Mof_H 	H 	0.6666	0.0248	0.4283	0.104
Mof_C 	C 	0.4832	0.7018	0.3672	0.308
Mof_C 	C 	0.605	0.016	0.3155	0.364
Mof_Cd	Cd	0.56192	0.46391	0.68055	0.539
Mof_O 	O 	0.8099	0.4573	0.6819	-0.232
Mof_O 	O 	0.6952	0.5661	0.6369	-0.238
Mof_O 	O 	0.3092	0.4595	0.6841	-0.246
Mof_O 	O 	0.4054	0.5719	0.6475	-0.252
Mof_O 	O 	0.0389	0.7814	0.5693	-0.227
Mof_O 	O 	0.6565	0.9103	0.5163	-0.215
Mof_O 	O 	0.4781	0.6403	0.4015	-0.252
Mof_O 	O 	0.452	0.6881	0.3162	-0.257
Mof_O 	O 	0.5758	0.9966	0.2688	-0.306
Mof_O 	O 	0.6482	0.0941	0.3293	-0.228
Mof_C 	C 	0.1953	0.0305	0.8451	0.271
Mof_C 	C 	0.0701	0.0746	0.8597	0.034
Mof_C 	C 	0.9459	0.0343	0.8434	-0.077
Mof_H 	H 	0.9407	0.9789	0.8236	0.096
Mof_C 	C 	0.8308	0.077	0.8566	0.035
Mof_C 	C 	0.8388	0.1603	0.8846	-0.172
Mof_H 	H 	0.7607	0.1913	0.891	0.136
Mof_C 	C 	0.9608	0.1973	0.903	0.234
Mof_C 	C 	0.0777	0.1566	0.8902	-0.175
Mof_H 	H 	0.1603	0.1836	0.9017	0.122
Mof_C 	C 	0.6944	0.0324	0.8404	0.302
Mof_C 	C 	0.073	0.3288	0.9459	0.024
Mof_H 	H 	0.1315	0.2932	0.9731	0.048
Mof_H 	H 	0.1197	0.3394	0.9126	0.049
Mof_C 	C 	0.0416	0.4217	0.9727	0.029
Mof_C 	C 	0.9139	0.429	0.9909	-0.086
Mof_H 	H 	0.8557	0.3793	0.985	0.089
Mof_C 	C 	0.1289	0.4953	0.9833	0.026
Mof_C 	C 	0.2705	0.4917	0.9655	-0.026
Mof_H 	H 	0.3201	0.5449	0.9812	0.053
Mof_H 	H 	0.2649	0.4958	0.9242	0.063
Mof_C 	C 	0.3823	0.4038	0.0401	0.199
Mof_C 	C 	0.4331	0.3159	0.0557	-0.137
Mof_H 	H 	0.4415	0.2716	0.0279	0.114
Mof_C 	C 	0.4706	0.2958	0.1133	-0.002
Mof_C 	C 	0.4605	0.3637	0.1538	-0.04
Mof_H 	H 	0.4901	0.3516	0.1919	0.087
Mof_C 	C 	0.4072	0.4494	0.1386	-0.02
Mof_C 	C 	0.3692	0.4675	0.082	-0.137
Mof_H 	H 	0.3334	0.5248	0.0717	0.104
Mof_C 	C 	0.5168	0.2018	0.1328	0.308
Mof_C 	C 	0.395	0.516	0.1845	0.365
Mof_Cd	Cd	0.43808	0.96391	0.81945	0.539
Mof_O 	O 	0.1901	0.9573	0.8181	-0.233
Mof_O 	O 	0.3048	0.0661	0.8631	-0.238
Mof_O 	O 	0.6908	0.9595	0.8159	-0.247
Mof_O 	O 	0.5946	0.0719	0.8525	-0.252
Mof_O 	O 	0.9611	0.2814	0.9307	-0.227
Mof_O 	O 	0.3435	0.4103	0.9837	-0.215
Mof_O 	O 	0.5219	0.1403	0.0985	-0.252
Mof_O 	O 	0.548	0.1881	0.1838	-0.257
Mof_O 	O 	0.4242	0.4966	0.2312	-0.306
Mof_O 	O 	0.3518	0.5941	0.1707	-0.228
_end
