# CIF file generated by openbabel 3.1.0, see https://openbabel.org
data_I
_chemical_name_common 'image0'
_cell_length_a 23.6899
_cell_length_b 23.6899
_cell_length_c 13.5483
_cell_angle_alpha 90
_cell_angle_beta 90
_cell_angle_gamma 120
_space_group_name_H-M_alt 'P 1'
_space_group_name_Hall 'P 1'
loop_
    _symmetry_equiv_pos_as_xyz
    x,y,z
loop_
    _atom_site_label
    _atom_site_type_symbol
    _atom_site_fract_x
    _atom_site_fract_y
    _atom_site_fract_z
    _atom_site_occupancy
    Zn1      Zn       0.36175    0.09274    0.11931    1.000
    Ga1      Ga       0.35015    0.24382    0.91702    1.000
    P1       P        0.41939    0.23676    0.12217    1.000
    P2       P        0.32662    0.98613    0.27617    1.000
    O1       O        0.37022    0.21217    0.03760    1.000
    O2       O        0.42363    0.17677    0.15810    1.000
    O3       O        0.39135    0.25975    0.20750    1.000
    O4       O        0.48577    0.29114    0.09430    1.000
    O5       O        0.37621    0.04409    0.21320    1.000
    O6       O        0.36457    0.95540    0.32340    1.000
    O7       O        0.27095    0.93589    0.21550    1.000
    O8       O        0.29983    0.00955    0.35940    1.000
    N1       N        0.44470    0.27740    0.86790    1.000
    N2       N        0.33340    0.15750    0.85270    1.000
    N3       N        0.25160    0.18880    0.94410    1.000
    C1       C        0.44820    0.22130    0.82860    1.000
    C2       C        0.38560    0.17450    0.77930    1.000
    C3       C        0.26560    0.12300    0.81850    1.000
    C4       C        0.22510    0.12140    0.90610    1.000
    H1       H        0.46690    0.29130    0.92200    1.000
    H2       H        0.44970    0.30280    0.82250    1.000
    H3       H        0.33820    0.13070    0.90010    1.000
    H4       H        0.23670    0.20830    0.91340    1.000
    H5       H        0.24500    0.19190    0.01110    1.000
    H6       H        0.45590    0.19520    0.88390    1.000
    H7       H        0.47440    0.22660    0.78830    1.000
    H8       H        0.38490    0.13210    0.74440    1.000
    H9       H        0.37400    0.19460    0.72580    1.000
    H10      H        0.23430    0.07160    0.80110    1.000
    H11      H        0.26950    0.15320    0.75730    1.000
    H12      H        0.18030    0.10190    0.86630    1.000
    H13      H        0.22730    0.09400    0.96820    1.000
    Ga2      Ga       0.30492    0.24059    0.21402    1.000
    Zn2      Zn       0.02842    0.42607    0.45264    1.000
    Ga3      Ga       0.01682    0.57715    0.25035    1.000
    P3       P        0.08606    0.57009    0.45550    1.000
    P4       P        0.99329    0.31946    0.60950    1.000
    O9       O        0.03689    0.54550    0.37093    1.000
    O10      O        0.09030    0.51010    0.49143    1.000
    O11      O        0.05802    0.59308    0.54083    1.000
    O12      O        0.15244    0.62447    0.42763    1.000
    O13      O        0.04288    0.37742    0.54653    1.000
    O14      O        0.03124    0.28873    0.65673    1.000
    O15      O        0.93762    0.26922    0.54883    1.000
    O16      O        0.96650    0.34288    0.69273    1.000
    N4       N        0.11137    0.61073    0.20123    1.000
    N5       N        0.00007    0.49083    0.18603    1.000
    N6       N        0.91827    0.52213    0.27743    1.000
    C5       C        0.11487    0.55463    0.16193    1.000
    C6       C        0.05227    0.50783    0.11263    1.000
    C7       C        0.93227    0.45633    0.15183    1.000
    C8       C        0.89177    0.45473    0.23943    1.000
    H14      H        0.13357    0.62463    0.25533    1.000
    H15      H        0.11637    0.63613    0.15583    1.000
    H16      H        0.00487    0.46403    0.23343    1.000
    H17      H        0.90337    0.54163    0.24673    1.000
    H18      H        0.91167    0.52523    0.34443    1.000
    H19      H        0.12257    0.52853    0.21723    1.000
    H20      H        0.14107    0.55993    0.12163    1.000
    H21      H        0.05157    0.46543    0.07773    1.000
    H22      H        0.04067    0.52793    0.05913    1.000
    H23      H        0.90097    0.40493    0.13443    1.000
    H24      H        0.93617    0.48653    0.09063    1.000
    H25      H        0.84697    0.43523    0.19963    1.000
    H26      H        0.89397    0.42733    0.30153    1.000
    Ga4      Ga       0.97158    0.57393    0.54736    1.000
    Zn3      Zn       0.69508    0.75941    0.78598    1.000
    Ga5      Ga       0.68348    0.91049    0.58369    1.000
    P5       P        0.75272    0.90343    0.78884    1.000
    P6       P        0.65995    0.65280    0.94284    1.000
    O17      O        0.70355    0.87884    0.70427    1.000
    O18      O        0.75696    0.84344    0.82477    1.000
    O19      O        0.72468    0.92642    0.87417    1.000
    O20      O        0.81910    0.95781    0.76097    1.000
    O21      O        0.70954    0.71076    0.87987    1.000
    O22      O        0.69790    0.62207    0.99007    1.000
    O23      O        0.60428    0.60256    0.88217    1.000
    O24      O        0.63316    0.67622    0.02607    1.000
    N7       N        0.77803    0.94407    0.53457    1.000
    N8       N        0.66673    0.82417    0.51937    1.000
    N9       N        0.58493    0.85547    0.61077    1.000
    C9       C        0.78153    0.88797    0.49527    1.000
    C10      C        0.71893    0.84117    0.44597    1.000
    C11      C        0.59893    0.78967    0.48517    1.000
    C12      C        0.55843    0.78807    0.57277    1.000
    H27      H        0.80023    0.95797    0.58867    1.000
    H28      H        0.78303    0.96947    0.48917    1.000
    H29      H        0.67153    0.79737    0.56677    1.000
    H30      H        0.57003    0.87497    0.58007    1.000
    H31      H        0.57833    0.85857    0.67777    1.000
    H32      H        0.78923    0.86187    0.55057    1.000
    H33      H        0.80773    0.89327    0.45497    1.000
    H34      H        0.71823    0.79877    0.41107    1.000
    H35      H        0.70733    0.86127    0.39247    1.000
    H36      H        0.56763    0.73827    0.46777    1.000
    H37      H        0.60283    0.81987    0.42397    1.000
    H38      H        0.51363    0.76857    0.53297    1.000
    H39      H        0.56063    0.76067    0.63487    1.000
    Ga6      Ga       0.63825    0.90726    0.88069    1.000
    Zn4      Zn       0.90726    0.26901    0.11931    1.000
    Ga7      Ga       0.75618    0.10633    0.91702    1.000
    P7       P        0.76324    0.18263    0.12217    1.000
    P8       P        0.01387    0.34049    0.27617    1.000
    O25      O        0.78783    0.15805    0.03760    1.000
    O26      O        0.82323    0.24686    0.15810    1.000
    O27      O        0.74025    0.13160    0.20750    1.000
    O28      O        0.70886    0.19463    0.09430    1.000
    O29      O        0.95591    0.33212    0.21320    1.000
    O30      O        0.04460    0.40917    0.32340    1.000
    O31      O        0.06411    0.33506    0.21550    1.000
    O32      O        0.99045    0.29028    0.35940    1.000
    N10      N        0.72260    0.16730    0.86790    1.000
    N11      N        0.84250    0.17590    0.85270    1.000
    N12      N        0.81120    0.06280    0.94410    1.000
    C13      C        0.77870    0.22690    0.82860    1.000
    C14      C        0.82550    0.21110    0.77930    1.000
    C15      C        0.87700    0.14260    0.81850    1.000
    C16      C        0.87860    0.10370    0.90610    1.000
    H40      H        0.70870    0.17560    0.92200    1.000
    H41      H        0.69720    0.14690    0.82250    1.000
    H42      H        0.86930    0.20750    0.90010    1.000
    H43      H        0.79170    0.02840    0.91340    1.000
    H44      H        0.80810    0.05310    0.01110    1.000
    H45      H        0.80480    0.26070    0.88390    1.000
    H46      H        0.77340    0.24780    0.78830    1.000
    H47      H        0.86790    0.25280    0.74440    1.000
    H48      H        0.80540    0.17940    0.72580    1.000
    H49      H        0.92840    0.16270    0.80110    1.000
    H50      H        0.84680    0.11630    0.75730    1.000
    H51      H        0.89810    0.07840    0.86630    1.000
    H52      H        0.90600    0.13330    0.96820    1.000
    Ga8      Ga       0.75941    0.06432    0.21402    1.000
    Zn5      Zn       0.57393    0.60234    0.45264    1.000
    Ga9      Ga       0.42285    0.43966    0.25035    1.000
    P9       P        0.42991    0.51596    0.45550    1.000
    P10      P        0.68054    0.67382    0.60950    1.000
    O33      O        0.45450    0.49138    0.37093    1.000
    O34      O        0.48990    0.58019    0.49143    1.000
    O35      O        0.40692    0.46493    0.54083    1.000
    O36      O        0.37553    0.52796    0.42763    1.000
    O37      O        0.62258    0.66545    0.54653    1.000
    O38      O        0.71127    0.74250    0.65673    1.000
    O39      O        0.73078    0.66839    0.54883    1.000
    O40      O        0.65712    0.62361    0.69273    1.000
    N13      N        0.38927    0.50063    0.20123    1.000
    N14      N        0.50917    0.50923    0.18603    1.000
    N15      N        0.47787    0.39613    0.27743    1.000
    C17      C        0.44537    0.56023    0.16193    1.000
    C18      C        0.49217    0.54443    0.11263    1.000
    C19      C        0.54367    0.47593    0.15183    1.000
    C20      C        0.54527    0.43703    0.23943    1.000
    H53      H        0.37537    0.50893    0.25533    1.000
    H54      H        0.36387    0.48023    0.15583    1.000
    H55      H        0.53597    0.54083    0.23343    1.000
    H56      H        0.45837    0.36173    0.24673    1.000
    H57      H        0.47477    0.38643    0.34443    1.000
    H58      H        0.47147    0.59403    0.21723    1.000
    H59      H        0.44007    0.58113    0.12163    1.000
    H60      H        0.53457    0.58613    0.07773    1.000
    H61      H        0.47207    0.51273    0.05913    1.000
    H62      H        0.59507    0.49603    0.13443    1.000
    H63      H        0.51347    0.44963    0.09063    1.000
    H64      H        0.56477    0.41173    0.19963    1.000
    H65      H        0.57267    0.46663    0.30153    1.000
    Ga10     Ga       0.42607    0.39766    0.54736    1.000
    Zn6      Zn       0.24059    0.93568    0.78598    1.000
    Ga11     Ga       0.08951    0.77300    0.58369    1.000
    P11      P        0.09657    0.84930    0.78884    1.000
    P12      P        0.34720    0.00716    0.94284    1.000
    O41      O        0.12116    0.82472    0.70427    1.000
    O42      O        0.15656    0.91353    0.82477    1.000
    O43      O        0.07358    0.79827    0.87417    1.000
    O44      O        0.04219    0.86130    0.76097    1.000
    O45      O        0.28924    0.99879    0.87987    1.000
    O46      O        0.37793    0.07584    0.99007    1.000
    O47      O        0.39744    0.00173    0.88217    1.000
    O48      O        0.32378    0.95695    0.02607    1.000
    N16      N        0.05593    0.83397    0.53457    1.000
    N17      N        0.17583    0.84257    0.51937    1.000
    N18      N        0.14453    0.72947    0.61077    1.000
    C21      C        0.11203    0.89357    0.49527    1.000
    C22      C        0.15883    0.87777    0.44597    1.000
    C23      C        0.21033    0.80927    0.48517    1.000
    C24      C        0.21193    0.77037    0.57277    1.000
    H66      H        0.04203    0.84227    0.58867    1.000
    H67      H        0.03053    0.81357    0.48917    1.000
    H68      H        0.20263    0.87417    0.56677    1.000
    H69      H        0.12503    0.69507    0.58007    1.000
    H70      H        0.14143    0.71977    0.67777    1.000
    H71      H        0.13813    0.92737    0.55057    1.000
    H72      H        0.10673    0.91447    0.45497    1.000
    H73      H        0.20123    0.91947    0.41107    1.000
    H74      H        0.13873    0.84607    0.39247    1.000
    H75      H        0.26173    0.82937    0.46777    1.000
    H76      H        0.18013    0.78297    0.42397    1.000
    H77      H        0.23143    0.74507    0.53297    1.000
    H78      H        0.23933    0.79997    0.63487    1.000
    Ga12     Ga       0.09274    0.73099    0.88069    1.000
    Zn7      Zn       0.73099    0.63825    0.11931    1.000
    Ga13     Ga       0.89367    0.64985    0.91702    1.000
    P13      P        0.81737    0.58061    0.12217    1.000
    P14      P        0.65951    0.67338    0.27617    1.000
    O49      O        0.84195    0.62978    0.03760    1.000
    O50      O        0.75314    0.57637    0.15810    1.000
    O51      O        0.86840    0.60865    0.20750    1.000
    O52      O        0.80537    0.51423    0.09430    1.000
    O53      O        0.66788    0.62379    0.21320    1.000
    O54      O        0.59083    0.63543    0.32340    1.000
    O55      O        0.66494    0.72905    0.21550    1.000
    O56      O        0.70972    0.70017    0.35940    1.000
    N19      N        0.83270    0.55530    0.86790    1.000
    N20      N        0.82410    0.66660    0.85270    1.000
    N21      N        0.93720    0.74840    0.94410    1.000
    C25      C        0.77310    0.55180    0.82860    1.000
    C26      C        0.78890    0.61440    0.77930    1.000
    C27      C        0.85740    0.73440    0.81850    1.000
    C28      C        0.89630    0.77490    0.90610    1.000
    H79      H        0.82440    0.53310    0.92200    1.000
    H80      H        0.85310    0.55030    0.82250    1.000
    H81      H        0.79250    0.66180    0.90010    1.000
    H82      H        0.97160    0.76330    0.91340    1.000
    H83      H        0.94690    0.75500    0.01110    1.000
    H84      H        0.73930    0.54410    0.88390    1.000
    H85      H        0.75220    0.52560    0.78830    1.000
    H86      H        0.74720    0.61510    0.74440    1.000
    H87      H        0.82060    0.62600    0.72580    1.000
    H88      H        0.83730    0.76570    0.80110    1.000
    H89      H        0.88370    0.73050    0.75730    1.000
    H90      H        0.92160    0.81970    0.86630    1.000
    H91      H        0.86670    0.77270    0.96820    1.000
    Ga14     Ga       0.93568    0.69508    0.21402    1.000
    Zn8      Zn       0.39766    0.97158    0.45264    1.000
    Ga15     Ga       0.56034    0.98318    0.25035    1.000
    P15      P        0.48404    0.91394    0.45550    1.000
    P16      P        0.32618    0.00671    0.60950    1.000
    O57      O        0.50862    0.96311    0.37093    1.000
    O58      O        0.41981    0.90970    0.49143    1.000
    O59      O        0.53507    0.94198    0.54083    1.000
    O60      O        0.47204    0.84756    0.42763    1.000
    O61      O        0.33455    0.95712    0.54653    1.000
    O62      O        0.25750    0.96876    0.65673    1.000
    O63      O        0.33161    0.06238    0.54883    1.000
    O64      O        0.37639    0.03350    0.69273    1.000
    N22      N        0.49937    0.88863    0.20123    1.000
    N23      N        0.49077    0.99993    0.18603    1.000
    N24      N        0.60387    0.08173    0.27743    1.000
    C29      C        0.43977    0.88513    0.16193    1.000
    C30      C        0.45557    0.94773    0.11263    1.000
    C31      C        0.52407    0.06773    0.15183    1.000
    C32      C        0.56297    0.10823    0.23943    1.000
    H92      H        0.49107    0.86643    0.25533    1.000
    H93      H        0.51977    0.88363    0.15583    1.000
    H94      H        0.45917    0.99513    0.23343    1.000
    H95      H        0.63827    0.09663    0.24673    1.000
    H96      H        0.61357    0.08833    0.34443    1.000
    H97      H        0.40597    0.87743    0.21723    1.000
    H98      H        0.41887    0.85893    0.12163    1.000
    H99      H        0.41387    0.94843    0.07773    1.000
    H100     H        0.48727    0.95933    0.05913    1.000
    H101     H        0.50397    0.09903    0.13443    1.000
    H102     H        0.55037    0.06383    0.09063    1.000
    H103     H        0.58827    0.15303    0.19963    1.000
    H104     H        0.53337    0.10603    0.30153    1.000
    Ga16     Ga       0.60234    0.02842    0.54736    1.000
    Zn9      Zn       0.06432    0.30492    0.78598    1.000
    Ga17     Ga       0.22700    0.31652    0.58369    1.000
    P17      P        0.15070    0.24728    0.78884    1.000
    P18      P        0.99284    0.34005    0.94284    1.000
    O65      O        0.17528    0.29645    0.70427    1.000
    O66      O        0.08647    0.24304    0.82477    1.000
    O67      O        0.20173    0.27532    0.87417    1.000
    O68      O        0.13870    0.18090    0.76097    1.000
    O69      O        0.00121    0.29046    0.87987    1.000
    O70      O        0.92416    0.30210    0.99007    1.000
    O71      O        0.99827    0.39572    0.88217    1.000
    O72      O        0.04305    0.36684    0.02607    1.000
    N25      N        0.16603    0.22197    0.53457    1.000
    N26      N        0.15743    0.33327    0.51937    1.000
    N27      N        0.27053    0.41507    0.61077    1.000
    C33      C        0.10643    0.21847    0.49527    1.000
    C34      C        0.12223    0.28107    0.44597    1.000
    C35      C        0.19073    0.40107    0.48517    1.000
    C36      C        0.22963    0.44157    0.57277    1.000
    H105     H        0.15773    0.19977    0.58867    1.000
    H106     H        0.18643    0.21697    0.48917    1.000
    H107     H        0.12583    0.32847    0.56677    1.000
    H108     H        0.30493    0.42997    0.58007    1.000
    H109     H        0.28023    0.42167    0.67777    1.000
    H110     H        0.07263    0.21077    0.55057    1.000
    H111     H        0.08553    0.19227    0.45497    1.000
    H112     H        0.08053    0.28177    0.41107    1.000
    H113     H        0.15393    0.29267    0.39247    1.000
    H114     H        0.17063    0.43237    0.46777    1.000
    H115     H        0.21703    0.39717    0.42397    1.000
    H116     H        0.25493    0.48637    0.53297    1.000
    H117     H        0.20003    0.43937    0.63487    1.000
    Ga18     Ga       0.26901    0.36175    0.88069    1.000
    Ga19     Ga       0.64985    0.75618    0.08298    1.000
    P19      P        0.58061    0.76324    0.87783    1.000
    P20      P        0.67338    0.01387    0.72383    1.000
    O73      O        0.62978    0.78783    0.96240    1.000
    O74      O        0.57637    0.82323    0.84190    1.000
    O75      O        0.60865    0.74025    0.79250    1.000
    O76      O        0.51423    0.70886    0.90570    1.000
    O77      O        0.62379    0.95591    0.78680    1.000
    O78      O        0.63543    0.04460    0.67660    1.000
    O79      O        0.72905    0.06411    0.78450    1.000
    O80      O        0.70017    0.99045    0.64060    1.000
    N28      N        0.55530    0.72260    0.13210    1.000
    N29      N        0.66660    0.84250    0.14730    1.000
    N30      N        0.74840    0.81120    0.05590    1.000
    C37      C        0.55180    0.77870    0.17140    1.000
    C38      C        0.61440    0.82550    0.22070    1.000
    C39      C        0.73440    0.87700    0.18150    1.000
    C40      C        0.77490    0.87860    0.09390    1.000
    H118     H        0.53310    0.70870    0.07800    1.000
    H119     H        0.55030    0.69720    0.17750    1.000
    H120     H        0.66180    0.86930    0.09990    1.000
    H121     H        0.76330    0.79170    0.08660    1.000
    H122     H        0.75500    0.80810    0.98890    1.000
    H123     H        0.54410    0.80480    0.11610    1.000
    H124     H        0.52560    0.77340    0.21170    1.000
    H125     H        0.61510    0.86790    0.25560    1.000
    H126     H        0.62600    0.80540    0.27420    1.000
    H127     H        0.76570    0.92840    0.19890    1.000
    H128     H        0.73050    0.84680    0.24270    1.000
    H129     H        0.81970    0.89810    0.13370    1.000
    H130     H        0.77270    0.90600    0.03180    1.000
    Ga20     Ga       0.31652    0.08951    0.41631    1.000
    P21      P        0.24728    0.09657    0.21116    1.000
    P22      P        0.34005    0.34720    0.05716    1.000
    O81      O        0.29645    0.12116    0.29573    1.000
    O82      O        0.24304    0.15656    0.17523    1.000
    O83      O        0.27532    0.07358    0.12583    1.000
    O84      O        0.18090    0.04219    0.23903    1.000
    O85      O        0.29046    0.28924    0.12013    1.000
    O86      O        0.30210    0.37793    0.00993    1.000
    O87      O        0.39572    0.39744    0.11783    1.000
    O88      O        0.36684    0.32378    0.97393    1.000
    N31      N        0.22197    0.05593    0.46543    1.000
    N32      N        0.33327    0.17583    0.48063    1.000
    N33      N        0.41507    0.14453    0.38923    1.000
    C41      C        0.21847    0.11203    0.50473    1.000
    C42      C        0.28107    0.15883    0.55403    1.000
    C43      C        0.40107    0.21033    0.51483    1.000
    C44      C        0.44157    0.21193    0.42723    1.000
    H131     H        0.19977    0.04203    0.41133    1.000
    H132     H        0.21697    0.03053    0.51083    1.000
    H133     H        0.32847    0.20263    0.43323    1.000
    H134     H        0.42997    0.12503    0.41993    1.000
    H135     H        0.42167    0.14143    0.32223    1.000
    H136     H        0.21077    0.13813    0.44943    1.000
    H137     H        0.19227    0.10673    0.54503    1.000
    H138     H        0.28177    0.20123    0.58893    1.000
    H139     H        0.29267    0.13873    0.60753    1.000
    H140     H        0.43237    0.26173    0.53223    1.000
    H141     H        0.39717    0.18013    0.57603    1.000
    H142     H        0.48637    0.23143    0.46703    1.000
    H143     H        0.43937    0.23933    0.36513    1.000
    Ga21     Ga       0.98318    0.42285    0.74965    1.000
    P23      P        0.91394    0.42991    0.54450    1.000
    P24      P        0.00671    0.68054    0.39050    1.000
    O89      O        0.96311    0.45450    0.62907    1.000
    O90      O        0.90970    0.48990    0.50857    1.000
    O91      O        0.94198    0.40692    0.45917    1.000
    O92      O        0.84756    0.37553    0.57237    1.000
    O93      O        0.95712    0.62258    0.45347    1.000
    O94      O        0.96876    0.71127    0.34327    1.000
    O95      O        0.06238    0.73078    0.45117    1.000
    O96      O        0.03350    0.65712    0.30727    1.000
    N34      N        0.88863    0.38927    0.79877    1.000
    N35      N        0.99993    0.50917    0.81397    1.000
    N36      N        0.08173    0.47787    0.72257    1.000
    C45      C        0.88513    0.44537    0.83807    1.000
    C46      C        0.94773    0.49217    0.88737    1.000
    C47      C        0.06773    0.54367    0.84817    1.000
    C48      C        0.10823    0.54527    0.76057    1.000
    H144     H        0.86643    0.37537    0.74467    1.000
    H145     H        0.88363    0.36387    0.84417    1.000
    H146     H        0.99513    0.53597    0.76657    1.000
    H147     H        0.09663    0.45837    0.75327    1.000
    H148     H        0.08833    0.47477    0.65557    1.000
    H149     H        0.87743    0.47147    0.78277    1.000
    H150     H        0.85893    0.44007    0.87837    1.000
    H151     H        0.94843    0.53457    0.92227    1.000
    H152     H        0.95933    0.47207    0.94087    1.000
    H153     H        0.09903    0.59507    0.86557    1.000
    H154     H        0.06383    0.51347    0.90937    1.000
    H155     H        0.15303    0.56477    0.80037    1.000
    H156     H        0.10603    0.57267    0.69847    1.000
    Ga22     Ga       0.24382    0.89367    0.08298    1.000
    P25      P        0.23676    0.81737    0.87783    1.000
    P26      P        0.98613    0.65951    0.72383    1.000
    O97      O        0.21217    0.84195    0.96240    1.000
    O98      O        0.17677    0.75314    0.84190    1.000
    O99      O        0.25975    0.86840    0.79250    1.000
    O100     O        0.29114    0.80537    0.90570    1.000
    O101     O        0.04409    0.66788    0.78680    1.000
    O102     O        0.95540    0.59083    0.67660    1.000
    O103     O        0.93589    0.66494    0.78450    1.000
    O104     O        0.00955    0.70972    0.64060    1.000
    N37      N        0.27740    0.83270    0.13210    1.000
    N38      N        0.15750    0.82410    0.14730    1.000
    N39      N        0.18880    0.93720    0.05590    1.000
    C49      C        0.22130    0.77310    0.17140    1.000
    C50      C        0.17450    0.78890    0.22070    1.000
    C51      C        0.12300    0.85740    0.18150    1.000
    C52      C        0.12140    0.89630    0.09390    1.000
    H157     H        0.29130    0.82440    0.07800    1.000
    H158     H        0.30280    0.85310    0.17750    1.000
    H159     H        0.13070    0.79250    0.09990    1.000
    H160     H        0.20830    0.97160    0.08660    1.000
    H161     H        0.19190    0.94690    0.98890    1.000
    H162     H        0.19520    0.73930    0.11610    1.000
    H163     H        0.22660    0.75220    0.21170    1.000
    H164     H        0.13210    0.74720    0.25560    1.000
    H165     H        0.19460    0.82060    0.27420    1.000
    H166     H        0.07160    0.83730    0.19890    1.000
    H167     H        0.15320    0.88370    0.24270    1.000
    H168     H        0.10190    0.92160    0.13370    1.000
    H169     H        0.09400    0.86670    0.03180    1.000
    Ga23     Ga       0.91049    0.22700    0.41631    1.000
    P27      P        0.90343    0.15070    0.21116    1.000
    P28      P        0.65280    0.99284    0.05716    1.000
    O105     O        0.87884    0.17528    0.29573    1.000
    O106     O        0.84344    0.08647    0.17523    1.000
    O107     O        0.92642    0.20173    0.12583    1.000
    O108     O        0.95781    0.13870    0.23903    1.000
    O109     O        0.71076    0.00121    0.12013    1.000
    O110     O        0.62207    0.92416    0.00993    1.000
    O111     O        0.60256    0.99827    0.11783    1.000
    O112     O        0.67622    0.04305    0.97393    1.000
    N40      N        0.94407    0.16603    0.46543    1.000
    N41      N        0.82417    0.15743    0.48063    1.000
    N42      N        0.85547    0.27053    0.38923    1.000
    C53      C        0.88797    0.10643    0.50473    1.000
    C54      C        0.84117    0.12223    0.55403    1.000
    C55      C        0.78967    0.19073    0.51483    1.000
    C56      C        0.78807    0.22963    0.42723    1.000
    H170     H        0.95797    0.15773    0.41133    1.000
    H171     H        0.96947    0.18643    0.51083    1.000
    H172     H        0.79737    0.12583    0.43323    1.000
    H173     H        0.87497    0.30493    0.41993    1.000
    H174     H        0.85857    0.28023    0.32223    1.000
    H175     H        0.86187    0.07263    0.44943    1.000
    H176     H        0.89327    0.08553    0.54503    1.000
    H177     H        0.79877    0.08053    0.58893    1.000
    H178     H        0.86127    0.15393    0.60753    1.000
    H179     H        0.73827    0.17063    0.53223    1.000
    H180     H        0.81987    0.21703    0.57603    1.000
    H181     H        0.76857    0.25493    0.46703    1.000
    H182     H        0.76067    0.20003    0.36513    1.000
    Ga24     Ga       0.57715    0.56034    0.74965    1.000
    P29      P        0.57009    0.48404    0.54450    1.000
    P30      P        0.31946    0.32618    0.39050    1.000
    O113     O        0.54550    0.50862    0.62907    1.000
    O114     O        0.51010    0.41981    0.50857    1.000
    O115     O        0.59308    0.53507    0.45917    1.000
    O116     O        0.62447    0.47204    0.57237    1.000
    O117     O        0.37742    0.33455    0.45347    1.000
    O118     O        0.28873    0.25750    0.34327    1.000
    O119     O        0.26922    0.33161    0.45117    1.000
    O120     O        0.34288    0.37639    0.30727    1.000
    N43      N        0.61073    0.49937    0.79877    1.000
    N44      N        0.49083    0.49077    0.81397    1.000
    N45      N        0.52213    0.60387    0.72257    1.000
    C57      C        0.55463    0.43977    0.83807    1.000
    C58      C        0.50783    0.45557    0.88737    1.000
    C59      C        0.45633    0.52407    0.84817    1.000
    C60      C        0.45473    0.56297    0.76057    1.000
    H183     H        0.62463    0.49107    0.74467    1.000
    H184     H        0.63613    0.51977    0.84417    1.000
    H185     H        0.46403    0.45917    0.76657    1.000
    H186     H        0.54163    0.63827    0.75327    1.000
    H187     H        0.52523    0.61357    0.65557    1.000
    H188     H        0.52853    0.40597    0.78277    1.000
    H189     H        0.55993    0.41887    0.87837    1.000
    H190     H        0.46543    0.41387    0.92227    1.000
    H191     H        0.52793    0.48727    0.94087    1.000
    H192     H        0.40493    0.50397    0.86557    1.000
    H193     H        0.48653    0.55037    0.90937    1.000
    H194     H        0.43523    0.58827    0.80037    1.000
    H195     H        0.42733    0.53337    0.69847    1.000
    Ga25     Ga       0.10633    0.35015    0.08298    1.000
    P31      P        0.18263    0.41939    0.87783    1.000
    P32      P        0.34049    0.32662    0.72383    1.000
    O121     O        0.15805    0.37022    0.96240    1.000
    O122     O        0.24686    0.42363    0.84190    1.000
    O123     O        0.13160    0.39135    0.79250    1.000
    O124     O        0.19463    0.48577    0.90570    1.000
    O125     O        0.33212    0.37621    0.78680    1.000
    O126     O        0.40917    0.36457    0.67660    1.000
    O127     O        0.33506    0.27095    0.78450    1.000
    O128     O        0.29028    0.29983    0.64060    1.000
    N46      N        0.16730    0.44470    0.13210    1.000
    N47      N        0.17590    0.33340    0.14730    1.000
    N48      N        0.06280    0.25160    0.05590    1.000
    C61      C        0.22690    0.44820    0.17140    1.000
    C62      C        0.21110    0.38560    0.22070    1.000
    C63      C        0.14260    0.26560    0.18150    1.000
    C64      C        0.10370    0.22510    0.09390    1.000
    H196     H        0.17560    0.46690    0.07800    1.000
    H197     H        0.14690    0.44970    0.17750    1.000
    H198     H        0.20750    0.33820    0.09990    1.000
    H199     H        0.02840    0.23670    0.08660    1.000
    H200     H        0.05310    0.24500    0.98890    1.000
    H201     H        0.26070    0.45590    0.11610    1.000
    H202     H        0.24780    0.47440    0.21170    1.000
    H203     H        0.25280    0.38490    0.25560    1.000
    H204     H        0.17940    0.37400    0.27420    1.000
    H205     H        0.16270    0.23430    0.19890    1.000
    H206     H        0.11630    0.26950    0.24270    1.000
    H207     H        0.07840    0.18030    0.13370    1.000
    H208     H        0.13330    0.22730    0.03180    1.000
    Ga26     Ga       0.77300    0.68348    0.41631    1.000
    P33      P        0.84930    0.75272    0.21116    1.000
    P34      P        0.00716    0.65995    0.05716    1.000
    O129     O        0.82472    0.70355    0.29573    1.000
    O130     O        0.91353    0.75696    0.17523    1.000
    O131     O        0.79827    0.72468    0.12583    1.000
    O132     O        0.86130    0.81910    0.23903    1.000
    O133     O        0.99879    0.70954    0.12013    1.000
    O134     O        0.07584    0.69790    0.00993    1.000
    O135     O        0.00173    0.60428    0.11783    1.000
    O136     O        0.95695    0.63316    0.97393    1.000
    N49      N        0.83397    0.77803    0.46543    1.000
    N50      N        0.84257    0.66673    0.48063    1.000
    N51      N        0.72947    0.58493    0.38923    1.000
    C65      C        0.89357    0.78153    0.50473    1.000
    C66      C        0.87777    0.71893    0.55403    1.000
    C67      C        0.80927    0.59893    0.51483    1.000
    C68      C        0.77037    0.55843    0.42723    1.000
    H209     H        0.84227    0.80023    0.41133    1.000
    H210     H        0.81357    0.78303    0.51083    1.000
    H211     H        0.87417    0.67153    0.43323    1.000
    H212     H        0.69507    0.57003    0.41993    1.000
    H213     H        0.71977    0.57833    0.32223    1.000
    H214     H        0.92737    0.78923    0.44943    1.000
    H215     H        0.91447    0.80773    0.54503    1.000
    H216     H        0.91947    0.71823    0.58893    1.000
    H217     H        0.84607    0.70733    0.60753    1.000
    H218     H        0.82937    0.56763    0.53223    1.000
    H219     H        0.78297    0.60283    0.57603    1.000
    H220     H        0.74507    0.51363    0.46703    1.000
    H221     H        0.79997    0.56063    0.36513    1.000
    Ga27     Ga       0.43966    0.01682    0.74965    1.000
    P35      P        0.51596    0.08606    0.54450    1.000
    P36      P        0.67382    0.99329    0.39050    1.000
    O137     O        0.49138    0.03689    0.62907    1.000
    O138     O        0.58019    0.09030    0.50857    1.000
    O139     O        0.46493    0.05802    0.45917    1.000
    O140     O        0.52796    0.15244    0.57237    1.000
    O141     O        0.66545    0.04288    0.45347    1.000
    O142     O        0.74250    0.03124    0.34327    1.000
    O143     O        0.66839    0.93762    0.45117    1.000
    O144     O        0.62361    0.96650    0.30727    1.000
    N52      N        0.50063    0.11137    0.79877    1.000
    N53      N        0.50923    0.00007    0.81397    1.000
    N54      N        0.39613    0.91827    0.72257    1.000
    C69      C        0.56023    0.11487    0.83807    1.000
    C70      C        0.54443    0.05227    0.88737    1.000
    C71      C        0.47593    0.93227    0.84817    1.000
    C72      C        0.43703    0.89177    0.76057    1.000
    H222     H        0.50893    0.13357    0.74467    1.000
    H223     H        0.48023    0.11637    0.84417    1.000
    H224     H        0.54083    0.00487    0.76657    1.000
    H225     H        0.36173    0.90337    0.75327    1.000
    H226     H        0.38643    0.91167    0.65557    1.000
    H227     H        0.59403    0.12257    0.78277    1.000
    H228     H        0.58113    0.14107    0.87837    1.000
    H229     H        0.58613    0.05157    0.92227    1.000
    H230     H        0.51273    0.04067    0.94087    1.000
    H231     H        0.49603    0.90097    0.86557    1.000
    H232     H        0.44963    0.93617    0.90937    1.000
    H233     H        0.41173    0.84697    0.80037    1.000
    H234     H        0.46663    0.89397    0.69847    1.000
