data_functionalizedCrystal
_audit_creation_method	'EQeq! by Chris Wilmer'
_symmetry_space_group_name_H-M	'P1'
_symmetry_Int_Tables_number	1
_symmetry_cell_setting	triclinic
loop_
_symmetry_equiv_pos_as_xyz
  x,y,z
_cell_length_a	17.342
_cell_length_b	15.8773
_cell_length_c	18.855
_cell_angle_alpha	90
_cell_angle_beta	90
_cell_angle_gamma	90
loop_
_atom_site_label
_atom_site_type_symbol
_atom_site_fract_x
_atom_site_fract_y
_atom_site_fract_z
_atom_site_charge
Mof_Zn	Zn	0.24225	0.01105	0.0327	1.213
Mof_O 	O 	0.19938	0.8962	0.02116	-0.446
Mof_N 	N 	0.26991	0.1231	0.83323	-0.162
Mof_N 	N 	0.26185	0.0507	0.93049	-0.222
Mof_O 	O 	0.60257	0.52019	0.00032	-0.336
Mof_N 	N 	0.35167	0.96679	0.05481	-0.218
Mof_C 	C 	0.37716	0.8934	0.03356	0.109
Mof_H 	H 	0.3501	0.8563	0.0046	-0.004
Mof_O 	O 	0.23063	0.13234	0.06728	-0.431
Mof_C 	C 	0.5049	0.6582	0.03028	0.083
Mof_H 	H 	0.4824	0.605	0.0294	0.034
Mof_N 	N 	0.44782	0.87953	0.05964	-0.164
Mof_O 	O 	0.2245	0.04015	0.15257	-0.374
Mof_N 	N 	0.31	0.00723	0.88504	-0.106
Mof_C 	C 	0.57193	0.8176	0.0303	-0.181
Mof_H 	H 	0.5938	0.8711	0.0297	0.101
Mof_C 	C 	0.23879	0.1194	0.89865	0.115
Mof_H 	H 	0.206	0.1595	0.9181	-0.005
Mof_C 	C 	0.49475	0.80674	0.04633	0.171
Mof_C 	C 	0.63066	0.59118	0.99669	0.347
Mof_C 	C 	0.61584	0.7473	0.0149	0.083
Mof_H 	H 	0.668	0.7534	0.0049	0.024
Mof_C 	C 	0.2399	0.3154	0.68446	-0.135
Mof_C 	C 	0.58313	0.66755	0.01443	-0.129
Mof_C 	C 	0.3141	0.0518	0.82721	0.101
Mof_H 	H 	0.3429	0.0373	0.7874	0.015
Mof_C 	C 	0.2449	0.2329	0.6617	0.088
Mof_H 	H 	0.2416	0.2205	0.6136	0.024
Mof_C 	C 	0.46098	0.72775	0.0473	-0.186
Mof_H 	H 	0.4093	0.7217	0.0593	0.112
Mof_C 	C 	0.26067	0.1882	0.78182	0.175
Mof_N 	N 	0.4061	0.0019	0.0979	-0.1
Mof_C 	C 	0.2579	0.2715	0.8053	-0.186
Mof_H 	H 	0.2635	0.2844	0.8532	0.107
Mof_C 	C 	0.2551	0.1678	0.71105	-0.19
Mof_H 	H 	0.258	0.112	0.6963	0.115
Mof_C 	C 	0.23034	0.1134	0.1321	0.337
Mof_C 	C 	0.2467	0.3346	0.7553	0.09
Mof_H 	H 	0.2438	0.3905	0.77	0.021
Mof_C 	C 	0.4632	0.9484	0.0991	0.108
Mof_H 	H 	0.5088	0.9568	0.1241	0.008
Mof_Zn	Zn	0.74225	0.48895	0.9673	1.213
Mof_O 	O 	0.69938	0.6038	0.97884	-0.448
Mof_N 	N 	0.76991	0.3769	0.16677	-0.162
Mof_N 	N 	0.76185	0.4493	0.06951	-0.223
Mof_O 	O 	0.10257	0.97981	0.99968	-0.336
Mof_N 	N 	0.85167	0.53321	0.94519	-0.219
Mof_C 	C 	0.87716	0.6066	0.96644	0.108
Mof_H 	H 	0.8501	0.6437	0.9954	-0.005
Mof_O 	O 	0.73063	0.36766	0.93272	-0.43
Mof_C 	C 	0.0049	0.8418	0.96972	0.102
Mof_H 	H 	0.9824	0.895	0.9706	0.024
Mof_N 	N 	0.94782	0.62047	0.94036	-0.163
Mof_O 	O 	0.7245	0.45985	0.84743	-0.373
Mof_N 	N 	0.81	0.49277	0.11496	-0.106
Mof_C 	C 	0.07193	0.6824	0.9697	-0.181
Mof_H 	H 	0.0938	0.6289	0.9703	0.101
Mof_C 	C 	0.73879	0.3806	0.10135	0.115
Mof_H 	H 	0.706	0.3405	0.0819	-0.006
Mof_C 	C 	0.99475	0.69326	0.95367	0.171
Mof_C 	C 	0.13066	0.90882	0.00331	0.351
Mof_C 	C 	0.11584	0.7527	0.9851	0.087
Mof_H 	H 	0.168	0.7466	0.9951	0.022
Mof_C 	C 	0.7399	0.1846	0.31554	-0.136
Mof_C 	C 	0.08313	0.83245	0.98557	-0.138
Mof_C 	C 	0.8141	0.4482	0.17279	0.101
Mof_H 	H 	0.8429	0.4627	0.2126	0.015
Mof_C 	C 	0.7449	0.2671	0.3383	0.088
Mof_H 	H 	0.7416	0.2795	0.3864	0.024
Mof_C 	C 	0.96098	0.77225	0.9527	-0.2
Mof_H 	H 	0.9093	0.7783	0.9407	0.116
Mof_C 	C 	0.76067	0.3118	0.21818	0.175
Mof_N 	N 	0.9061	0.4981	0.9021	-0.097
Mof_C 	C 	0.7579	0.2285	0.1947	-0.186
Mof_H 	H 	0.7635	0.2156	0.1468	0.106
Mof_C 	C 	0.7551	0.3322	0.28895	-0.19
Mof_H 	H 	0.758	0.388	0.3037	0.115
Mof_C 	C 	0.73034	0.3866	0.8679	0.337
Mof_C 	C 	0.7467	0.1654	0.2447	0.09
Mof_H 	H 	0.7438	0.1095	0.23	0.021
Mof_C 	C 	0.9632	0.5516	0.9009	0.101
Mof_H 	H 	0.0088	0.5432	0.8759	0.013
Mof_Zn	Zn	0.74225	0.01105	0.4673	1.214
Mof_O 	O 	0.69938	0.8962	0.47884	-0.448
Mof_N 	N 	0.76991	0.1231	0.66677	-0.162
Mof_N 	N 	0.76185	0.0507	0.56951	-0.223
Mof_O 	O 	0.10257	0.52019	0.49968	-0.338
Mof_N 	N 	0.85167	0.96679	0.44519	-0.219
Mof_C 	C 	0.87716	0.8934	0.46644	0.108
Mof_H 	H 	0.8501	0.8563	0.4954	-0.004
Mof_O 	O 	0.73063	0.13234	0.43272	-0.43
Mof_C 	C 	0.0049	0.6582	0.46972	0.084
Mof_H 	H 	0.9824	0.605	0.4706	0.033
Mof_N 	N 	0.94782	0.87953	0.44036	-0.163
Mof_O 	O 	0.7245	0.04015	0.34743	-0.373
Mof_N 	N 	0.81	0.00723	0.61496	-0.106
Mof_C 	C 	0.07193	0.8176	0.4697	-0.182
Mof_H 	H 	0.0938	0.8711	0.4703	0.1
Mof_C 	C 	0.73879	0.1194	0.60135	0.115
Mof_H 	H 	0.706	0.1595	0.5819	-0.006
Mof_C 	C 	0.99475	0.80674	0.45367	0.171
Mof_C 	C 	0.13066	0.59118	0.50331	0.35
Mof_C 	C 	0.11584	0.7473	0.4851	0.084
Mof_H 	H 	0.168	0.7534	0.4951	0.023
Mof_C 	C 	0.7399	0.3154	0.81554	-0.136
Mof_C 	C 	0.08313	0.66755	0.48557	-0.132
Mof_C 	C 	0.8141	0.0518	0.67279	0.101
Mof_H 	H 	0.8429	0.0373	0.7126	0.016
Mof_C 	C 	0.7449	0.2329	0.8383	0.088
Mof_H 	H 	0.7416	0.2205	0.8864	0.024
Mof_C 	C 	0.96098	0.72775	0.4527	-0.187
Mof_H 	H 	0.9093	0.7217	0.4407	0.112
Mof_C 	C 	0.76067	0.1882	0.71818	0.175
Mof_N 	N 	0.9061	0.0019	0.4021	-0.098
Mof_C 	C 	0.7579	0.2715	0.6947	-0.186
Mof_H 	H 	0.7635	0.2844	0.6468	0.106
Mof_C 	C 	0.7551	0.1678	0.78895	-0.19
Mof_H 	H 	0.758	0.112	0.8037	0.116
Mof_C 	C 	0.73034	0.1134	0.3679	0.337
Mof_C 	C 	0.7467	0.3346	0.7447	0.09
Mof_H 	H 	0.7438	0.3905	0.73	0.021
Mof_C 	C 	0.9632	0.9484	0.4009	0.106
Mof_H 	H 	0.0088	0.9568	0.3759	0.009
Mof_Zn	Zn	0.24225	0.48895	0.5327	1.214
Mof_O 	O 	0.19938	0.6038	0.52116	-0.448
Mof_N 	N 	0.26991	0.3769	0.33323	-0.162
Mof_N 	N 	0.26185	0.4493	0.43049	-0.224
Mof_O 	O 	0.60257	0.97981	0.50032	-0.338
Mof_N 	N 	0.35167	0.53321	0.55481	-0.219
Mof_C 	C 	0.37716	0.6066	0.53356	0.109
Mof_H 	H 	0.3501	0.6437	0.5046	-0.004
Mof_O 	O 	0.23063	0.36766	0.56728	-0.43
Mof_C 	C 	0.5049	0.8418	0.53028	0.085
Mof_H 	H 	0.4824	0.895	0.5294	0.033
Mof_N 	N 	0.44782	0.62047	0.55964	-0.164
Mof_O 	O 	0.2245	0.45985	0.65257	-0.373
Mof_N 	N 	0.31	0.49277	0.38504	-0.106
Mof_C 	C 	0.57193	0.6824	0.5303	-0.183
Mof_H 	H 	0.5938	0.6289	0.5297	0.1
Mof_C 	C 	0.23879	0.3806	0.39865	0.115
Mof_H 	H 	0.206	0.3405	0.4181	-0.006
Mof_C 	C 	0.49475	0.69326	0.54633	0.171
Mof_C 	C 	0.63066	0.90882	0.49669	0.35
Mof_C 	C 	0.61584	0.7527	0.5149	0.084
Mof_H 	H 	0.668	0.7466	0.5049	0.023
Mof_C 	C 	0.2399	0.1846	0.18446	-0.136
Mof_C 	C 	0.58313	0.83245	0.51443	-0.132
Mof_C 	C 	0.3141	0.4482	0.32721	0.101
Mof_H 	H 	0.3429	0.4627	0.2874	0.015
Mof_C 	C 	0.2449	0.2671	0.1617	0.089
Mof_H 	H 	0.2416	0.2795	0.1136	0.023
Mof_C 	C 	0.46098	0.77225	0.5473	-0.187
Mof_H 	H 	0.4093	0.7783	0.5593	0.113
Mof_C 	C 	0.26067	0.3118	0.28182	0.175
Mof_N 	N 	0.4061	0.4981	0.5979	-0.098
Mof_C 	C 	0.2579	0.2285	0.3053	-0.186
Mof_H 	H 	0.2635	0.2156	0.3532	0.106
Mof_C 	C 	0.2551	0.3322	0.21105	-0.19
Mof_H 	H 	0.258	0.388	0.1963	0.115
Mof_C 	C 	0.23034	0.3866	0.6321	0.337
Mof_C 	C 	0.2467	0.1654	0.2553	0.09
Mof_H 	H 	0.2438	0.1095	0.27	0.021
Mof_C 	C 	0.4632	0.5516	0.5991	0.106
Mof_H 	H 	0.5088	0.5432	0.6241	0.009
Mof_Zn	Zn	0.25775	0.98895	0.5327	1.214
Mof_O 	O 	0.30062	0.1038	0.52116	-0.448
Mof_N 	N 	0.23009	0.8769	0.33323	-0.162
Mof_N 	N 	0.23815	0.9493	0.43049	-0.223
Mof_O 	O 	0.89743	0.47981	0.50032	-0.338
Mof_N 	N 	0.14833	0.03321	0.55481	-0.219
Mof_C 	C 	0.12284	0.1066	0.53356	0.108
Mof_H 	H 	0.1499	0.1437	0.5046	-0.004
Mof_O 	O 	0.26937	0.86766	0.56728	-0.43
Mof_C 	C 	0.9951	0.3418	0.53028	0.084
Mof_H 	H 	0.0176	0.395	0.5294	0.033
Mof_N 	N 	0.05218	0.12047	0.55964	-0.163
Mof_O 	O 	0.2755	0.95985	0.65257	-0.373
Mof_N 	N 	0.19	0.99277	0.38504	-0.106
Mof_C 	C 	0.92807	0.1824	0.5303	-0.182
Mof_H 	H 	0.9062	0.1289	0.5297	0.1
Mof_C 	C 	0.26121	0.8806	0.39865	0.115
Mof_H 	H 	0.294	0.8405	0.4181	-0.006
Mof_C 	C 	0.00525	0.19326	0.54633	0.171
Mof_C 	C 	0.86934	0.40882	0.49669	0.35
Mof_C 	C 	0.88416	0.2527	0.5149	0.084
Mof_H 	H 	0.832	0.2466	0.5049	0.023
Mof_C 	C 	0.2601	0.6846	0.18446	-0.136
Mof_C 	C 	0.91687	0.33245	0.51443	-0.132
Mof_C 	C 	0.1859	0.9482	0.32721	0.101
Mof_H 	H 	0.1571	0.9627	0.2874	0.016
Mof_C 	C 	0.2551	0.7671	0.1617	0.088
Mof_H 	H 	0.2584	0.7795	0.1136	0.024
Mof_C 	C 	0.03902	0.27225	0.5473	-0.187
Mof_H 	H 	0.0907	0.2783	0.5593	0.112
Mof_C 	C 	0.23933	0.8118	0.28182	0.175
Mof_N 	N 	0.0939	0.9981	0.5979	-0.098
Mof_C 	C 	0.2421	0.7285	0.3053	-0.186
Mof_H 	H 	0.2365	0.7156	0.3532	0.106
Mof_C 	C 	0.2449	0.8322	0.21105	-0.19
Mof_H 	H 	0.242	0.888	0.1963	0.116
Mof_C 	C 	0.26966	0.8866	0.6321	0.337
Mof_C 	C 	0.2533	0.6654	0.2553	0.09
Mof_H 	H 	0.2562	0.6095	0.27	0.021
Mof_C 	C 	0.0368	0.0516	0.5991	0.106
Mof_H 	H 	0.9912	0.0432	0.6241	0.009
Mof_Zn	Zn	0.75775	0.51105	0.4673	1.214
Mof_O 	O 	0.80062	0.3962	0.47884	-0.448
Mof_N 	N 	0.73009	0.6231	0.66677	-0.162
Mof_N 	N 	0.73815	0.5507	0.56951	-0.224
Mof_O 	O 	0.39743	0.02019	0.49968	-0.338
Mof_N 	N 	0.64833	0.46679	0.44519	-0.219
Mof_C 	C 	0.62284	0.3934	0.46644	0.109
Mof_H 	H 	0.6499	0.3563	0.4954	-0.004
Mof_O 	O 	0.76937	0.63234	0.43272	-0.43
Mof_C 	C 	0.4951	0.1582	0.46972	0.085
Mof_H 	H 	0.5176	0.105	0.4706	0.033
Mof_N 	N 	0.55218	0.37953	0.44036	-0.164
Mof_O 	O 	0.7755	0.54015	0.34743	-0.373
Mof_N 	N 	0.69	0.50723	0.61496	-0.106
Mof_C 	C 	0.42807	0.3176	0.4697	-0.183
Mof_H 	H 	0.4062	0.3711	0.4703	0.1
Mof_C 	C 	0.76121	0.6194	0.60135	0.115
Mof_H 	H 	0.794	0.6595	0.5819	-0.006
Mof_C 	C 	0.50525	0.30674	0.45367	0.171
Mof_C 	C 	0.36934	0.09118	0.50331	0.35
Mof_C 	C 	0.38416	0.2473	0.4851	0.084
Mof_H 	H 	0.332	0.2534	0.4951	0.023
Mof_C 	C 	0.7601	0.8154	0.81554	-0.136
Mof_C 	C 	0.41687	0.16755	0.48557	-0.132
Mof_C 	C 	0.6859	0.5518	0.67279	0.101
Mof_H 	H 	0.6571	0.5373	0.7126	0.015
Mof_C 	C 	0.7551	0.7329	0.8383	0.089
Mof_H 	H 	0.7584	0.7205	0.8864	0.023
Mof_C 	C 	0.53902	0.22775	0.4527	-0.187
Mof_H 	H 	0.5907	0.2217	0.4407	0.113
Mof_C 	C 	0.73933	0.6882	0.71818	0.175
Mof_N 	N 	0.5939	0.5019	0.4021	-0.098
Mof_C 	C 	0.7421	0.7715	0.6947	-0.186
Mof_H 	H 	0.7365	0.7844	0.6468	0.106
Mof_C 	C 	0.7449	0.6678	0.78895	-0.19
Mof_H 	H 	0.742	0.612	0.8037	0.115
Mof_C 	C 	0.76966	0.6134	0.3679	0.337
Mof_C 	C 	0.7533	0.8346	0.7447	0.09
Mof_H 	H 	0.7562	0.8905	0.73	0.021
Mof_C 	C 	0.5368	0.4484	0.4009	0.106
Mof_H 	H 	0.4912	0.4568	0.3759	0.009
Mof_Zn	Zn	0.75775	0.98895	0.9673	1.212
Mof_O 	O 	0.80062	0.1038	0.97884	-0.447
Mof_N 	N 	0.73009	0.8769	0.16677	-0.162
Mof_N 	N 	0.73815	0.9493	0.06951	-0.222
Mof_O 	O 	0.39743	0.47981	0.99968	-0.336
Mof_N 	N 	0.64833	0.03321	0.94519	-0.218
Mof_C 	C 	0.62284	0.1066	0.96644	0.109
Mof_H 	H 	0.6499	0.1437	0.9954	-0.004
Mof_O 	O 	0.76937	0.86766	0.93272	-0.431
Mof_C 	C 	0.4951	0.3418	0.96972	0.083
Mof_H 	H 	0.5176	0.395	0.9706	0.034
Mof_N 	N 	0.55218	0.12047	0.94036	-0.164
Mof_O 	O 	0.7755	0.95985	0.84743	-0.374
Mof_N 	N 	0.69	0.99277	0.11496	-0.106
Mof_C 	C 	0.42807	0.1824	0.9697	-0.181
Mof_H 	H 	0.4062	0.1289	0.9703	0.101
Mof_C 	C 	0.76121	0.8806	0.10135	0.115
Mof_H 	H 	0.794	0.8405	0.0819	-0.005
Mof_C 	C 	0.50525	0.19326	0.95367	0.171
Mof_C 	C 	0.36934	0.40882	0.00331	0.347
Mof_C 	C 	0.38416	0.2527	0.9851	0.083
Mof_H 	H 	0.332	0.2466	0.9951	0.024
Mof_C 	C 	0.7601	0.6846	0.31554	-0.135
Mof_C 	C 	0.41687	0.33245	0.98557	-0.129
Mof_C 	C 	0.6859	0.9482	0.17279	0.101
Mof_H 	H 	0.6571	0.9627	0.2126	0.015
Mof_C 	C 	0.7551	0.7671	0.3383	0.088
Mof_H 	H 	0.7584	0.7795	0.3864	0.024
Mof_C 	C 	0.53902	0.27225	0.9527	-0.186
Mof_H 	H 	0.5907	0.2783	0.9407	0.112
Mof_C 	C 	0.73933	0.8118	0.21818	0.175
Mof_N 	N 	0.5939	0.9981	0.9021	-0.1
Mof_C 	C 	0.7421	0.7285	0.1947	-0.186
Mof_H 	H 	0.7365	0.7156	0.1468	0.107
Mof_C 	C 	0.7449	0.8322	0.28895	-0.19
Mof_H 	H 	0.742	0.888	0.3037	0.115
Mof_C 	C 	0.76966	0.8866	0.8679	0.337
Mof_C 	C 	0.7533	0.6654	0.2447	0.09
Mof_H 	H 	0.7562	0.6095	0.23	0.021
Mof_C 	C 	0.5368	0.0516	0.9009	0.108
Mof_H 	H 	0.4912	0.0432	0.8759	0.008
Mof_Zn	Zn	0.25775	0.51105	0.0327	1.213
Mof_O 	O 	0.30062	0.3962	0.02116	-0.448
Mof_N 	N 	0.23009	0.6231	0.83323	-0.162
Mof_N 	N 	0.23815	0.5507	0.93049	-0.223
Mof_O 	O 	0.89743	0.02019	0.00032	-0.336
Mof_N 	N 	0.14833	0.46679	0.05481	-0.219
Mof_C 	C 	0.12284	0.3934	0.03356	0.108
Mof_H 	H 	0.1499	0.3563	0.0046	-0.005
Mof_O 	O 	0.26937	0.63234	0.06728	-0.43
Mof_C 	C 	0.9951	0.1582	0.03028	0.102
Mof_H 	H 	0.0176	0.105	0.0294	0.024
Mof_N 	N 	0.05218	0.37953	0.05964	-0.163
Mof_O 	O 	0.2755	0.54015	0.15257	-0.373
Mof_N 	N 	0.19	0.50723	0.88504	-0.106
Mof_C 	C 	0.92807	0.3176	0.0303	-0.181
Mof_H 	H 	0.9062	0.3711	0.0297	0.101
Mof_C 	C 	0.26121	0.6194	0.89865	0.115
Mof_H 	H 	0.294	0.6595	0.9181	-0.006
Mof_C 	C 	0.00525	0.30674	0.04633	0.171
Mof_C 	C 	0.86934	0.09118	0.99669	0.351
Mof_C 	C 	0.88416	0.2473	0.0149	0.087
Mof_H 	H 	0.832	0.2534	0.0049	0.022
Mof_C 	C 	0.2601	0.8154	0.68446	-0.136
Mof_C 	C 	0.91687	0.16755	0.01443	-0.138
Mof_C 	C 	0.1859	0.5518	0.82721	0.101
Mof_H 	H 	0.1571	0.5373	0.7874	0.015
Mof_C 	C 	0.2551	0.7329	0.6617	0.088
Mof_H 	H 	0.2584	0.7205	0.6136	0.024
Mof_C 	C 	0.03902	0.22775	0.0473	-0.2
Mof_H 	H 	0.0907	0.2217	0.0593	0.116
Mof_C 	C 	0.23933	0.6882	0.78182	0.175
Mof_N 	N 	0.0939	0.5019	0.0979	-0.097
Mof_C 	C 	0.2421	0.7715	0.8053	-0.186
Mof_H 	H 	0.2365	0.7844	0.8532	0.106
Mof_C 	C 	0.2449	0.6678	0.71105	-0.19
Mof_H 	H 	0.242	0.612	0.6963	0.115
Mof_C 	C 	0.26966	0.6134	0.1321	0.337
Mof_C 	C 	0.2533	0.8346	0.7553	0.09
Mof_H 	H 	0.2562	0.8905	0.77	0.021
Mof_C 	C 	0.0368	0.4484	0.0991	0.101
Mof_H 	H 	0.9912	0.4568	0.1241	0.013
_end
