data_functionalizedCrystal
_audit_creation_method	'EQeq! by Chris Wilmer'
_symmetry_space_group_name_H-M	'P1'
_symmetry_Int_Tables_number	1
_symmetry_cell_setting	triclinic
loop_
_symmetry_equiv_pos_as_xyz
  x,y,z
_cell_length_a	6.5192
_cell_length_b	15.4818
_cell_length_c	16.9913
_cell_angle_alpha	89.23
_cell_angle_beta	84.607
_cell_angle_gamma	85.574
loop_
_atom_site_label
_atom_site_type_symbol
_atom_site_fract_x
_atom_site_fract_y
_atom_site_fract_z
_atom_site_charge
Mof_Ag	Ag	0.7288	0.02035	0.05761	0.567
Mof_Ag	Ag	0.74721	0.53013	0.43691	0.571
Mof_N 	N 	0.4399	0.1034	0.0728	-0.181
Mof_N 	N 	0.3047	0.1097	0.0146	-0.16
Mof_N 	N 	0.2371	0.2213	0.0946	-0.194
Mof_N 	N 	0.4837	0.4864	0.3821	-0.183
Mof_N 	N 	0.3736	0.4228	0.4234	-0.157
Mof_N 	N 	0.2755	0.434	0.3039	-0.196
Mof_N 	N 	0.8551	0.395	0.5066	-0.157
Mof_N 	N 	0.9764	0.3967	0.5709	-0.177
Mof_N 	N 	0.7865	0.2862	0.586	-0.195
Mof_N 	N 	0.842	0.0797	0.9242	-0.154
Mof_N 	N 	0.9925	0.0221	0.8861	-0.181
Mof_N 	N 	0.7842	0.0707	0.7998	-0.196
Mof_C 	C 	0.3947	0.1696	0.1195	0.103
Mof_H 	H 	0.4627	0.1799	0.1645	-0.037
Mof_C 	C 	0.1857	0.1813	0.0291	0.091
Mof_H 	H 	0.0794	0.202	0.9984	-0.024
Mof_C 	C 	0.417	0.4915	0.311	0.111
Mof_H 	H 	0.462	0.53	0.271	-0.036
Mof_C 	C 	0.2538	0.3931	0.3756	0.097
Mof_H 	H 	0.1638	0.3494	0.3884	-0.027
Mof_C 	C 	0.1457	0.3062	0.1269	0.325
Mof_C 	C 	0.2568	0.326	0.2005	-0.43
Mof_H 	H 	0.2353	0.2809	0.2409	0.146
Mof_H 	H 	0.4057	0.3272	0.186	0.152
Mof_C 	C 	0.1673	0.4144	0.2329	0.327
Mof_C 	C 	0.2022	0.4849	0.1702	-0.445
Mof_H 	H 	0.3503	0.4869	0.1546	0.148
Mof_H 	H 	0.149	0.5416	0.1917	0.144
Mof_C 	C 	0.0891	0.4644	0.0981	0.34
Mof_H 	H 	0.1085	0.5103	0.0575	-0.095
Mof_C 	C 	0.1845	0.3764	0.0642	-0.44
Mof_H 	H 	0.1209	0.3631	0.0162	0.148
Mof_H 	H 	0.3333	0.3791	0.0505	0.145
Mof_C 	C 	0.9171	0.3003	0.1506	-0.437
Mof_H 	H 	0.8968	0.2556	0.1913	0.143
Mof_H 	H 	0.8468	0.2852	0.1047	0.142
Mof_C 	C 	0.8281	0.3901	0.183	0.324
Mof_H 	H 	0.6782	0.3884	0.1984	-0.089
Mof_C 	C 	0.9402	0.4108	0.257	-0.422
Mof_H 	H 	0.883	0.4665	0.2794	0.124
Mof_H 	H 	0.919	0.3658	0.2975	0.137
Mof_C 	C 	0.8621	0.4589	0.1213	-0.469
Mof_H 	H 	0.8016	0.515	0.142	0.148
Mof_H 	H 	0.7928	0.4457	0.0747	0.153
Mof_C 	C 	0.7477	0.3281	0.5176	0.096
Mof_H 	H 	0.655	0.3109	0.4828	-0.029
Mof_C 	C 	0.93	0.3306	0.6168	0.102
Mof_H 	H 	0.9883	0.3164	0.6643	-0.036
Mof_C 	C 	0.7212	0.1072	0.8705	0.096
Mof_H 	H 	0.6056	0.1471	0.8799	-0.029
Mof_C 	C 	0.9519	0.0173	0.8123	0.109
Mof_H 	H 	0.0282	0.982	0.7737	-0.041
Mof_C 	C 	0.7053	0.2031	0.6138	0.325
Mof_C 	C 	0.7783	0.1802	0.6956	-0.44
Mof_H 	H 	0.9295	0.177	0.6927	0.156
Mof_H 	H 	0.7236	0.225	0.7338	0.148
Mof_C 	C 	0.7003	0.0926	0.722	0.336
Mof_C 	C 	0.7843	0.0218	0.6629	-0.45
Mof_H 	H 	0.9356	0.017	0.6588	0.153
Mof_H 	H 	0.7358	0.9659	0.6811	0.146
Mof_C 	C 	0.7088	0.0449	0.5823	0.343
Mof_H 	H 	0.7618	0.9993	0.5437	-0.099
Mof_C 	C 	0.7901	0.1324	0.5545	-0.441
Mof_H 	H 	0.9415	0.1278	0.5505	0.151
Mof_H 	H 	0.746	0.1473	0.5021	0.145
Mof_C 	C 	0.4686	0.2108	0.621	-0.432
Mof_H 	H 	0.4188	0.2267	0.5697	0.139
Mof_H 	H 	0.4156	0.2559	0.6591	0.136
Mof_C 	C 	0.3917	0.1227	0.6488	0.329
Mof_H 	H 	0.2388	0.1266	0.6532	-0.094
Mof_C 	C 	0.4674	0.0977	0.7295	-0.446
Mof_H 	H 	0.4125	0.1412	0.7689	0.143
Mof_H 	H 	0.4187	0.0416	0.7467	0.139
Mof_C 	C 	0.4757	0.053	0.5884	-0.462
Mof_H 	H 	0.423	0.9973	0.6048	0.146
Mof_H 	H 	0.4283	0.0684	0.5367	0.153
Mof_Ag	Ag	0.2712	0.97965	0.94239	0.568
Mof_Ag	Ag	0.25279	0.46987	0.56309	0.572
Mof_N 	N 	0.5601	0.8966	0.9272	-0.18
Mof_N 	N 	0.6953	0.8903	0.9854	-0.159
Mof_N 	N 	0.7629	0.7787	0.9054	-0.193
Mof_N 	N 	0.5163	0.5136	0.6179	-0.182
Mof_N 	N 	0.6264	0.5772	0.5766	-0.156
Mof_N 	N 	0.7245	0.566	0.6961	-0.195
Mof_N 	N 	0.1449	0.605	0.4934	-0.157
Mof_N 	N 	0.0236	0.6033	0.4291	-0.177
Mof_N 	N 	0.2135	0.7138	0.414	-0.195
Mof_N 	N 	0.158	0.9203	0.0758	-0.154
Mof_N 	N 	0.0075	0.9779	0.1139	-0.181
Mof_N 	N 	0.2158	0.9293	0.2002	-0.196
Mof_C 	C 	0.6053	0.8304	0.8805	0.103
Mof_H 	H 	0.5373	0.8201	0.8355	-0.037
Mof_C 	C 	0.8143	0.8187	0.9709	0.091
Mof_H 	H 	0.9206	0.798	0.0016	-0.024
Mof_C 	C 	0.583	0.5085	0.689	0.111
Mof_H 	H 	0.538	0.47	0.729	-0.036
Mof_C 	C 	0.7462	0.6069	0.6244	0.097
Mof_H 	H 	0.8362	0.6506	0.6116	-0.027
Mof_C 	C 	0.8543	0.6938	0.8731	0.325
Mof_C 	C 	0.7432	0.674	0.7995	-0.43
Mof_H 	H 	0.7647	0.7191	0.7591	0.146
Mof_H 	H 	0.5943	0.6728	0.814	0.152
Mof_C 	C 	0.8327	0.5856	0.7671	0.327
Mof_C 	C 	0.7978	0.5151	0.8298	-0.445
Mof_H 	H 	0.6497	0.5131	0.8454	0.148
Mof_H 	H 	0.851	0.4584	0.8083	0.144
Mof_C 	C 	0.9109	0.5356	0.9019	0.34
Mof_H 	H 	0.8915	0.4897	0.9425	-0.095
Mof_C 	C 	0.8155	0.6236	0.9358	-0.44
Mof_H 	H 	0.8791	0.6369	0.9838	0.148
Mof_H 	H 	0.6667	0.6209	0.9495	0.145
Mof_C 	C 	0.0829	0.6997	0.8494	-0.437
Mof_H 	H 	0.1032	0.7444	0.8087	0.143
Mof_H 	H 	0.1532	0.7148	0.8953	0.142
Mof_C 	C 	0.1719	0.6099	0.817	0.324
Mof_H 	H 	0.3218	0.6116	0.8016	-0.089
Mof_C 	C 	0.0598	0.5892	0.743	-0.422
Mof_H 	H 	0.117	0.5335	0.7206	0.124
Mof_H 	H 	0.081	0.6342	0.7025	0.137
Mof_C 	C 	0.1379	0.5411	0.8787	-0.469
Mof_H 	H 	0.1984	0.485	0.858	0.148
Mof_H 	H 	0.2072	0.5543	0.9253	0.153
Mof_C 	C 	0.2523	0.6719	0.4824	0.096
Mof_H 	H 	0.345	0.6891	0.5172	-0.029
Mof_C 	C 	0.07	0.6694	0.3832	0.102
Mof_H 	H 	0.0117	0.6836	0.3357	-0.036
Mof_C 	C 	0.2788	0.8928	0.1295	0.096
Mof_H 	H 	0.3944	0.8529	0.1201	-0.029
Mof_C 	C 	0.0481	0.9827	0.1877	0.109
Mof_H 	H 	0.9718	0.018	0.2263	-0.041
Mof_C 	C 	0.2947	0.7969	0.3862	0.325
Mof_C 	C 	0.2217	0.8198	0.3044	-0.44
Mof_H 	H 	0.0705	0.823	0.3073	0.156
Mof_H 	H 	0.2764	0.775	0.2662	0.148
Mof_C 	C 	0.2997	0.9074	0.278	0.336
Mof_C 	C 	0.2157	0.9782	0.3371	-0.45
Mof_H 	H 	0.0644	0.983	0.3412	0.153
Mof_H 	H 	0.2642	0.0341	0.3189	0.146
Mof_C 	C 	0.2912	0.9551	0.4177	0.343
Mof_H 	H 	0.2382	0.0007	0.4563	-0.099
Mof_C 	C 	0.2099	0.8676	0.4455	-0.441
Mof_H 	H 	0.0585	0.8722	0.4495	0.151
Mof_H 	H 	0.254	0.8527	0.4979	0.145
Mof_C 	C 	0.5314	0.7892	0.379	-0.432
Mof_H 	H 	0.5812	0.7733	0.4303	0.139
Mof_H 	H 	0.5844	0.7441	0.3409	0.136
Mof_C 	C 	0.6083	0.8773	0.3512	0.329
Mof_H 	H 	0.7612	0.8734	0.3468	-0.094
Mof_C 	C 	0.5326	0.9023	0.2705	-0.446
Mof_H 	H 	0.5875	0.8588	0.2311	0.143
Mof_H 	H 	0.5813	0.9584	0.2533	0.139
Mof_C 	C 	0.5243	0.947	0.4116	-0.462
Mof_H 	H 	0.577	0.0027	0.3952	0.146
Mof_H 	H 	0.5717	0.9316	0.4633	0.153
_end
