data_functionalizedCrystal
_audit_creation_method	'EQeq! by Chris Wilmer'
_symmetry_space_group_name_H-M	'P1'
_symmetry_Int_Tables_number	1
_symmetry_cell_setting	triclinic
loop_
_symmetry_equiv_pos_as_xyz
  x,y,z
_cell_length_a	18.005
_cell_length_b	23.235
_cell_length_c	23.732
_cell_angle_alpha	90
_cell_angle_beta	90
_cell_angle_gamma	90.46
loop_
_atom_site_label
_atom_site_type_symbol
_atom_site_fract_x
_atom_site_fract_y
_atom_site_fract_z
_atom_site_charge
Mof_Cr	Cr	0.99259	0.14725	0.34799	1.563
Mof_Cr	Cr	0.00741	0.35275	0.84799	1.435
Mof_Cr	Cr	0.00741	0.85275	0.65201	1.43
Mof_Cr	Cr	0.99259	0.64725	0.15201	1.567
Mof_Cr	Cr	0.5	0.5	0.5	1.355
Mof_Cr	Cr	0.5	0	-0	1.153
Mof_Cr	Cr	8.29776e-19	0.5	0.5	1.302
Mof_Cr	Cr	-0	0	-0	1.116
Mof_Cu	Cu	0.74313	0.59892	0.44359	0.872
Mof_Cu	Cu	0.87734	0.29351	0.48569	0.872
Mof_Cu	Cu	0.91219	0.50928	0.71269	0.869
Mof_Cu	Cu	0.25687	0.90108	0.94359	0.879
Mof_Cu	Cu	0.12266	0.20649	0.98569	0.884
Mof_Cu	Cu	0.08781	0.99072	0.21269	0.876
Mof_Cu	Cu	0.25687	0.40108	0.55641	0.871
Mof_Cu	Cu	0.12266	0.70649	0.51431	0.871
Mof_Cu	Cu	0.08781	0.49072	0.28731	0.865
Mof_Cu	Cu	0.74313	0.09892	0.05641	0.865
Mof_Cu	Cu	0.87734	0.79351	0.01431	0.859
Mof_Cu	Cu	0.91219	0.00928	0.78731	0.857
Mof_H 	H 	0.6599	0.6427	0.5475	-0.157
Mof_H 	H 	0.6713	0.7138	0.6162	0.402
Mof_H 	H 	0.7743	0.7511	0.6221	-0.291
Mof_H 	H 	0.8601	0.7576	0.5543	0.261
Mof_H 	H 	0.889	0.7076	0.4343	0.118
Mof_H 	H 	0.9034	0.6459	0.459	0.101
Mof_H 	H 	0.8994	0.5957	0.389	0.103
Mof_H 	H 	0.8877	0.6442	0.3435	0.121
Mof_H 	H 	0.8656	0.5744	0.2643	0.135
Mof_H 	H 	0.7879	0.5157	0.2259	-0.042
Mof_H 	H 	0.6824	0.4805	0.27	0.113
Mof_H 	H 	0.6591	0.522	0.3633	-0.031
Mof_H 	H 	0.8136	0.2736	0.3654	-0.011
Mof_H 	H 	0.7274	0.3125	0.307	0.087
Mof_H 	H 	0.6513	0.3834	0.3429	-0.001
Mof_H 	H 	0.6695	0.4187	0.4329	0.09
Mof_H 	H 	0.8105	0.4166	0.5096	0.09
Mof_H 	H 	0.7318	0.3961	0.5307	0.107
Mof_H 	H 	0.8223	0.3571	0.6204	0.106
Mof_H 	H 	0.8821	0.3856	0.5807	0.092
Mof_H 	H 	0.9212	0.3217	0.6835	0.126
Mof_H 	H 	0.0062	0.2505	0.6952	-0.038
Mof_H 	H 	0.0412	0.1831	0.6239	0.111
Mof_H 	H 	0.9888	0.2043	0.5333	-0.017
Mof_H 	H 	0.8103	0.4114	0.7412	-0.029
Mof_H 	H 	0.6934	0.3753	0.7216	0.123
Mof_H 	H 	0.6376	0.4213	0.6547	-0.02
Mof_H 	H 	0.6703	0.508	0.6136	0.104
Mof_H 	H 	0.8415	0.5562	0.6014	0.083
Mof_H 	H 	0.7814	0.5955	0.6296	0.099
Mof_H 	H 	0.9128	0.6564	0.6541	0.114
Mof_H 	H 	0.9451	0.6036	0.621	0.097
Mof_H 	H 	0.0423	0.6906	0.6862	0.104
Mof_H 	H 	0.1424	0.6724	0.7472	-0.007
Mof_H 	H 	0.1406	0.5916	0.8041	0.096
Mof_H 	H 	0.0497	0.5235	0.7887	-0.015
Mof_H 	H 	0.7724	0.653	0.4058	-0.038
Mof_H 	H 	0.8043	0.3009	0.5293	-0.019
Mof_H 	H 	0.8631	0.5705	0.7126	-0.018
Mof_H 	H 	0.3401	0.8573	0.0475	-0.15
Mof_H 	H 	0.3287	0.7862	0.1162	0.367
Mof_H 	H 	0.2257	0.7489	0.1221	-0.262
Mof_H 	H 	0.1399	0.7424	0.0543	0.23
Mof_H 	H 	0.111	0.7924	0.9343	0.1
Mof_H 	H 	0.0966	0.8541	0.959	0.085
Mof_H 	H 	0.1006	0.9043	0.889	0.087
Mof_H 	H 	0.1123	0.8558	0.8435	0.106
Mof_H 	H 	0.1344	0.9256	0.7643	0.108
Mof_H 	H 	0.2121	0.9843	0.7259	-0.004
Mof_H 	H 	0.3176	0.0195	0.77	0.061
Mof_H 	H 	0.3409	0.978	0.8633	-0.009
Mof_H 	H 	0.1864	0.2264	0.8654	-0.011
Mof_H 	H 	0.2726	0.1875	0.807	0.092
Mof_H 	H 	0.3487	0.1166	0.8429	-0.007
Mof_H 	H 	0.3305	0.0813	0.9329	0.098
Mof_H 	H 	0.1895	0.0834	0.0096	0.085
Mof_H 	H 	0.2682	0.1039	0.0307	0.11
Mof_H 	H 	0.1777	0.1429	0.1204	0.096
Mof_H 	H 	0.1179	0.1144	0.0807	0.078
Mof_H 	H 	0.0788	0.1783	0.1835	0.077
Mof_H 	H 	0.9938	0.2495	0.1952	0.051
Mof_H 	H 	0.9588	0.3169	0.1239	0.054
Mof_H 	H 	0.0112	0.2957	0.0333	-0.001
Mof_H 	H 	0.1897	0.0886	0.2412	-0.048
Mof_H 	H 	0.3066	0.1247	0.2216	0.153
Mof_H 	H 	0.3624	0.0787	0.1547	-0.06
Mof_H 	H 	0.3297	0.992	0.1136	0.162
Mof_H 	H 	0.1585	0.9438	0.1014	0.093
Mof_H 	H 	0.2186	0.9045	0.1296	0.109
Mof_H 	H 	0.0872	0.8436	0.1541	0.099
Mof_H 	H 	0.0549	0.8964	0.121	0.083
Mof_H 	H 	0.9577	0.8094	0.1862	0.089
Mof_H 	H 	0.8576	0.8276	0.2472	0.002
Mof_H 	H 	0.8594	0.9084	0.3041	0.099
Mof_H 	H 	0.9503	0.9765	0.2887	-0.008
Mof_H 	H 	0.2276	0.847	0.9058	-0.028
Mof_H 	H 	0.1957	0.1991	0.0293	-0.029
Mof_H 	H 	0.1369	0.9295	0.2126	-0.018
Mof_H 	H 	0.3401	0.3573	0.4525	-0.154
Mof_H 	H 	0.3287	0.2862	0.3838	0.39
Mof_H 	H 	0.2257	0.2489	0.3779	-0.285
Mof_H 	H 	0.1399	0.2424	0.4457	0.251
Mof_H 	H 	0.111	0.2924	0.5657	0.107
Mof_H 	H 	0.0966	0.3541	0.541	0.09
Mof_H 	H 	0.1006	0.4043	0.611	0.092
Mof_H 	H 	0.1123	0.3558	0.6565	0.111
Mof_H 	H 	0.1344	0.4256	0.7357	0.128
Mof_H 	H 	0.2121	0.4843	0.7741	-0.037
Mof_H 	H 	0.3176	0.5195	0.73	0.115
Mof_H 	H 	0.3409	0.478	0.6367	-0.03
Mof_H 	H 	0.1864	0.7264	0.6346	-0.01
Mof_H 	H 	0.2726	0.6875	0.693	0.09
Mof_H 	H 	0.3487	0.6166	0.6571	0.001
Mof_H 	H 	0.3305	0.5813	0.5671	0.09
Mof_H 	H 	0.1895	0.5834	0.4904	0.089
Mof_H 	H 	0.2682	0.6039	0.4693	0.106
Mof_H 	H 	0.1777	0.6429	0.3796	0.096
Mof_H 	H 	0.1179	0.6144	0.4193	0.081
Mof_H 	H 	0.0788	0.6783	0.3165	0.073
Mof_H 	H 	0.9938	0.7495	0.3048	0.06
Mof_H 	H 	0.9588	0.8169	0.3761	0.053
Mof_H 	H 	0.0112	0.7957	0.4667	0.013
Mof_H 	H 	0.1897	0.5886	0.2588	-0.03
Mof_H 	H 	0.3066	0.6247	0.2784	0.12
Mof_H 	H 	0.3624	0.5787	0.3453	-0.02
Mof_H 	H 	0.3297	0.492	0.3864	0.103
Mof_H 	H 	0.1585	0.4438	0.3986	0.082
Mof_H 	H 	0.2186	0.4045	0.3704	0.097
Mof_H 	H 	0.0872	0.3436	0.3459	0.099
Mof_H 	H 	0.0549	0.3964	0.379	0.082
Mof_H 	H 	0.9577	0.3094	0.3138	0.089
Mof_H 	H 	0.8576	0.3276	0.2528	0
Mof_H 	H 	0.8594	0.4084	0.1959	0.091
Mof_H 	H 	0.9503	0.4765	0.2113	-0.018
Mof_H 	H 	0.2276	0.347	0.5942	-0.037
Mof_H 	H 	0.1957	0.6991	0.4707	-0.016
Mof_H 	H 	0.1369	0.4295	0.2874	-0.02
Mof_H 	H 	0.6599	0.1427	0.9525	-0.161
Mof_H 	H 	0.6713	0.2138	0.8838	0.427
Mof_H 	H 	0.7743	0.2511	0.8779	-0.316
Mof_H 	H 	0.8601	0.2576	0.9457	0.283
Mof_H 	H 	0.889	0.2076	0.0657	0.124
Mof_H 	H 	0.9034	0.1459	0.041	0.106
Mof_H 	H 	0.8994	0.0957	0.111	0.107
Mof_H 	H 	0.8877	0.1442	0.1565	0.126
Mof_H 	H 	0.8656	0.0744	0.2357	0.154
Mof_H 	H 	0.7879	0.0157	0.2741	-0.076
Mof_H 	H 	0.6824	0.9805	0.23	0.168
Mof_H 	H 	0.6591	0.022	0.1367	-0.052
Mof_H 	H 	0.8136	0.7736	0.1346	-0.009
Mof_H 	H 	0.7274	0.8125	0.193	0.085
Mof_H 	H 	0.6513	0.8834	0.1571	0.007
Mof_H 	H 	0.6695	0.9187	0.0671	0.081
Mof_H 	H 	0.8105	0.9166	0.9904	0.095
Mof_H 	H 	0.7318	0.8961	0.9693	0.103
Mof_H 	H 	0.8223	0.8571	0.8796	0.108
Mof_H 	H 	0.8821	0.8856	0.9193	0.099
Mof_H 	H 	0.9212	0.8217	0.8165	0.131
Mof_H 	H 	0.0062	0.7505	0.8048	-0.045
Mof_H 	H 	0.0412	0.6831	0.8761	0.12
Mof_H 	H 	0.9888	0.7043	0.9667	-0.007
Mof_H 	H 	0.8103	0.9114	0.7588	-0.01
Mof_H 	H 	0.6934	0.8753	0.7784	0.086
Mof_H 	H 	0.6376	0.9213	0.8453	0.025
Mof_H 	H 	0.6703	0.008	0.8864	0.039
Mof_H 	H 	0.8415	0.0562	0.8986	0.071
Mof_H 	H 	0.7814	0.0955	0.8704	0.086
Mof_H 	H 	0.9128	0.1564	0.8459	0.113
Mof_H 	H 	0.9451	0.1036	0.879	0.095
Mof_H 	H 	0.0423	0.1906	0.8138	0.103
Mof_H 	H 	0.1424	0.1724	0.7528	-0.008
Mof_H 	H 	0.1406	0.0916	0.6959	0.089
Mof_H 	H 	0.0497	0.0235	0.7113	-0.025
Mof_H 	H 	0.7724	0.153	0.0942	-0.047
Mof_H 	H 	0.8043	0.8009	0.9707	-0.005
Mof_H 	H 	0.8631	0.0705	0.7874	-0.019
Mof_C 	C 	0.7023	0.6659	0.5475	0.516
Mof_C 	C 	0.7087	0.7063	0.5902	-1.043
Mof_C 	C 	0.7649	0.7295	0.5899	0.975
Mof_C 	C 	0.8209	0.7314	0.5512	-0.644
Mof_C 	C 	0.8161	0.6883	0.5028	0.244
Mof_C 	C 	0.865	0.673	0.4487	-0.259
Mof_C 	C 	0.8625	0.6184	0.3694	-0.262
Mof_C 	C 	0.8114	0.5819	0.34	0.197
Mof_C 	C 	0.824	0.5622	0.2843	-0.295
Mof_C 	C 	0.7779	0.528	0.2624	0.213
Mof_C 	C 	0.7142	0.5069	0.287	-0.239
Mof_C 	C 	0.7025	0.5314	0.344	0.141
Mof_C 	C 	0.7857	0.3042	0.3788	0.094
Mof_C 	C 	0.7331	0.3259	0.3437	-0.169
Mof_C 	C 	0.689	0.3684	0.3651	0.089
Mof_C 	C 	0.6995	0.3894	0.4191	-0.175
Mof_C 	C 	0.7574	0.3655	0.4537	0.137
Mof_C 	C 	0.7762	0.3842	0.511	-0.223
Mof_C 	C 	0.8544	0.3505	0.5882	-0.236
Mof_C 	C 	0.9077	0.3022	0.6014	0.18
Mof_C 	C 	0.935	0.2977	0.6541	-0.268
Mof_C 	C 	0.9848	0.2544	0.6598	0.186
Mof_C 	C 	0.0089	0.2134	0.6173	-0.24
Mof_C 	C 	0.9758	0.2264	0.5644	0.119
Mof_C 	C 	0.781	0.4309	0.7153	0.138
Mof_C 	C 	0.7135	0.4078	0.7043	-0.259
Mof_C 	C 	0.6824	0.4371	0.6669	0.166
Mof_C 	C 	0.7013	0.4897	0.6393	-0.214
Mof_C 	C 	0.7737	0.5117	0.6553	0.139
Mof_C 	C 	0.8158	0.5643	0.6364	-0.211
Mof_C 	C 	0.9289	0.6169	0.6578	-0.238
Mof_C 	C 	0.9926	0.6134	0.6995	0.174
Mof_C 	C 	0.0452	0.6562	0.7061	-0.224
Mof_C 	C 	0.1037	0.6459	0.7442	0.111
Mof_C 	C 	0.1043	0.5973	0.7768	-0.185
Mof_C 	C 	0.0492	0.5573	0.7677	0.096
Mof_C 	C 	0.6004	0.5376	0.4828	-0.243
Mof_C 	C 	0.5529	0.4255	0.5291	-0.242
Mof_C 	C 	0.4994	0.4659	0.4179	-0.239
Mof_C 	C 	0.8896	0.5241	0.4885	-0.229
Mof_C 	C 	0.9729	0.4154	0.4825	-0.234
Mof_C 	C 	0.9784	0.4864	0.5839	-0.241
Mof_C 	C 	0.9513	0.2053	0.405	-0.267
Mof_C 	C 	0.0646	0.1226	0.4077	-0.328
Mof_C 	C 	0.0685	0.2055	0.3169	-0.308
Mof_C 	C 	0.9172	0.1803	0.2907	-0.285
Mof_C 	C 	0.9181	0.085	0.3715	-0.294
Mof_C 	C 	0.9669	0.4103	0.7925	-0.25
Mof_C 	C 	0.2977	0.8341	0.0475	0.47
Mof_C 	C 	0.2913	0.7937	0.0902	-0.957
Mof_C 	C 	0.2351	0.7705	0.0899	0.88
Mof_C 	C 	0.1791	0.7686	0.0512	-0.585
Mof_C 	C 	0.1839	0.8117	0.0028	0.189
Mof_C 	C 	0.135	0.827	0.9487	-0.204
Mof_C 	C 	0.1375	0.8816	0.8694	-0.23
Mof_C 	C 	0.1886	0.9181	0.84	0.163
Mof_C 	C 	0.176	0.9378	0.7843	-0.224
Mof_C 	C 	0.2221	0.972	0.7624	0.126
Mof_C 	C 	0.2858	0.9931	0.787	-0.135
Mof_C 	C 	0.2975	0.9686	0.844	0.1
Mof_C 	C 	0.2143	0.1958	0.8788	0.1
Mof_C 	C 	0.2669	0.1741	0.8437	-0.179
Mof_C 	C 	0.311	0.1316	0.8651	0.104
Mof_C 	C 	0.3005	0.1106	0.9191	-0.196
Mof_C 	C 	0.2426	0.1345	0.9537	0.174
Mof_C 	C 	0.2238	0.1158	0.011	-0.266
Mof_C 	C 	0.1456	0.1495	0.0882	-0.209
Mof_C 	C 	0.0923	0.1978	0.1014	0.122
Mof_C 	C 	0.065	0.2023	0.1541	-0.145
Mof_C 	C 	0.0152	0.2456	0.1598	-0.015
Mof_C 	C 	0.9911	0.2866	0.1173	-0.068
Mof_C 	C 	0.0242	0.2736	0.0644	0.016
Mof_C 	C 	0.219	0.0691	0.2153	0.184
Mof_C 	C 	0.2865	0.0922	0.2043	-0.353
Mof_C 	C 	0.3176	0.0629	0.1669	0.27
Mof_C 	C 	0.2987	0.0103	0.1393	-0.35
Mof_C 	C 	0.2263	0.9883	0.1553	0.218
Mof_C 	C 	0.1842	0.9357	0.1364	-0.25
Mof_C 	C 	0.0711	0.8831	0.1578	-0.21
Mof_C 	C 	0.0074	0.8866	0.1995	0.119
Mof_C 	C 	0.9548	0.8438	0.2061	-0.157
Mof_C 	C 	0.8963	0.8541	0.2442	0.088
Mof_C 	C 	0.8957	0.9027	0.2768	-0.176
Mof_C 	C 	0.9508	0.9427	0.2677	0.13
Mof_C 	C 	0.3996	0.9624	0.9828	-0.164
Mof_C 	C 	0.4471	0.0745	0.0291	-0.228
Mof_C 	C 	0.5006	0.0341	0.9179	-0.195
Mof_C 	C 	0.1104	0.9759	0.9885	-0.171
Mof_C 	C 	0.0271	0.0846	0.9825	-0.205
Mof_C 	C 	0.0216	0.0136	0.0839	-0.24
Mof_C 	C 	0.0487	0.2947	0.905	-0.252
Mof_C 	C 	0.9354	0.3774	0.9077	-0.273
Mof_C 	C 	0.9315	0.2945	0.8169	-0.262
Mof_C 	C 	0.0828	0.3197	0.7907	-0.269
Mof_C 	C 	0.0819	0.415	0.8715	-0.273
Mof_C 	C 	0.0331	0.0897	0.2925	-0.301
Mof_C 	C 	0.2977	0.3341	0.4525	0.504
Mof_C 	C 	0.2913	0.2937	0.4098	-1.022
Mof_C 	C 	0.2351	0.2705	0.4101	0.95
Mof_C 	C 	0.1791	0.2686	0.4488	-0.631
Mof_C 	C 	0.1839	0.3117	0.4972	0.233
Mof_C 	C 	0.135	0.327	0.5513	-0.248
Mof_C 	C 	0.1375	0.3816	0.6306	-0.25
Mof_C 	C 	0.1886	0.4181	0.66	0.188
Mof_C 	C 	0.176	0.4378	0.7157	-0.287
Mof_C 	C 	0.2221	0.472	0.7376	0.205
Mof_C 	C 	0.2858	0.4931	0.713	-0.233
Mof_C 	C 	0.2975	0.4686	0.656	0.139
Mof_C 	C 	0.2143	0.6958	0.6212	0.094
Mof_C 	C 	0.2669	0.6741	0.6563	-0.168
Mof_C 	C 	0.311	0.6316	0.6349	0.089
Mof_C 	C 	0.3005	0.6106	0.5809	-0.174
Mof_C 	C 	0.2426	0.6345	0.5463	0.136
Mof_C 	C 	0.2238	0.6158	0.489	-0.22
Mof_C 	C 	0.1456	0.6495	0.4118	-0.203
Mof_C 	C 	0.0923	0.6978	0.3986	0.119
Mof_C 	C 	0.065	0.7023	0.3459	-0.133
Mof_C 	C 	0.0152	0.7456	0.3402	-0.033
Mof_C 	C 	0.9911	0.7866	0.3827	-0.048
Mof_C 	C 	0.0242	0.7736	0.4356	0.008
Mof_C 	C 	0.219	0.5691	0.2847	0.136
Mof_C 	C 	0.2865	0.5922	0.2957	-0.259
Mof_C 	C 	0.3176	0.5629	0.3331	0.164
Mof_C 	C 	0.2987	0.5103	0.3607	-0.214
Mof_C 	C 	0.2263	0.4883	0.3447	0.138
Mof_C 	C 	0.1842	0.4357	0.3636	-0.209
Mof_C 	C 	0.0711	0.3831	0.3422	-0.208
Mof_C 	C 	0.0074	0.3866	0.3005	0.118
Mof_C 	C 	0.9548	0.3438	0.2939	-0.159
Mof_C 	C 	0.8963	0.3541	0.2558	0.086
Mof_C 	C 	0.8957	0.4027	0.2232	-0.178
Mof_C 	C 	0.9508	0.4427	0.2323	0.125
Mof_C 	C 	0.3996	0.4624	0.5172	-0.243
Mof_C 	C 	0.4471	0.5745	0.4709	-0.241
Mof_C 	C 	0.5006	0.5341	0.5821	-0.239
Mof_C 	C 	0.1104	0.4759	0.5115	-0.241
Mof_C 	C 	0.0271	0.5846	0.5175	-0.256
Mof_C 	C 	0.0216	0.5136	0.4161	-0.259
Mof_C 	C 	0.0487	0.7947	0.595	-0.256
Mof_C 	C 	0.9354	0.8774	0.5923	-0.273
Mof_C 	C 	0.9315	0.7945	0.6831	-0.26
Mof_C 	C 	0.0828	0.8197	0.7093	-0.268
Mof_C 	C 	0.0819	0.915	0.6285	-0.272
Mof_C 	C 	0.0331	0.5897	0.2075	-0.3
Mof_C 	C 	0.7023	0.1659	0.9525	0.552
Mof_C 	C 	0.7087	0.2063	0.9098	-1.112
Mof_C 	C 	0.7649	0.2295	0.9101	1.05
Mof_C 	C 	0.8209	0.2314	0.9488	-0.693
Mof_C 	C 	0.8161	0.1883	0.9972	0.291
Mof_C 	C 	0.865	0.173	0.0513	-0.305
Mof_C 	C 	0.8625	0.1184	0.1306	-0.282
Mof_C 	C 	0.8114	0.0819	0.16	0.222
Mof_C 	C 	0.824	0.0622	0.2157	-0.359
Mof_C 	C 	0.7779	0.028	0.2376	0.294
Mof_C 	C 	0.7142	0.0069	0.213	-0.339
Mof_C 	C 	0.7025	0.0314	0.156	0.181
Mof_C 	C 	0.7857	0.8042	0.1212	0.087
Mof_C 	C 	0.7331	0.8259	0.1563	-0.157
Mof_C 	C 	0.689	0.8684	0.1349	0.075
Mof_C 	C 	0.6995	0.8894	0.0809	-0.153
Mof_C 	C 	0.7574	0.8655	0.0463	0.096
Mof_C 	C 	0.7762	0.8842	0.989	-0.174
Mof_C 	C 	0.8544	0.8505	0.9118	-0.235
Mof_C 	C 	0.9077	0.8022	0.8986	0.189
Mof_C 	C 	0.935	0.7977	0.8459	-0.279
Mof_C 	C 	0.9848	0.7544	0.8402	0.205
Mof_C 	C 	0.0089	0.7134	0.8827	-0.253
Mof_C 	C 	0.9758	0.7264	0.9356	0.131
Mof_C 	C 	0.781	0.9309	0.7847	0.084
Mof_C 	C 	0.7135	0.9078	0.7957	-0.154
Mof_C 	C 	0.6824	0.9371	0.8331	0.048
Mof_C 	C 	0.7013	0.9897	0.8607	-0.062
Mof_C 	C 	0.7737	0.0117	0.8447	0.05
Mof_C 	C 	0.8158	0.0643	0.8636	-0.166
Mof_C 	C 	0.9289	0.1169	0.8422	-0.235
Mof_C 	C 	0.9926	0.1134	0.8005	0.168
Mof_C 	C 	0.0452	0.1562	0.7939	-0.221
Mof_C 	C 	0.1037	0.1459	0.7558	0.108
Mof_C 	C 	0.1043	0.0973	0.7232	-0.187
Mof_C 	C 	0.0492	0.0573	0.7323	0.094
Mof_C 	C 	0.6004	0.0376	0.0172	-0.226
Mof_C 	C 	0.5529	0.9255	0.9709	-0.169
Mof_C 	C 	0.4994	0.9659	0.0821	-0.196
Mof_C 	C 	0.8896	0.0241	0.0115	-0.225
Mof_C 	C 	0.9729	0.9154	0.0175	-0.205
Mof_C 	C 	0.9784	0.9864	0.9161	-0.17
Mof_C 	C 	0.9513	0.7053	0.095	-0.272
Mof_C 	C 	0.0646	0.6226	0.0923	-0.331
Mof_C 	C 	0.0685	0.7055	0.1831	-0.31
Mof_C 	C 	0.9172	0.6803	0.2093	-0.285
Mof_C 	C 	0.9181	0.585	0.1285	-0.295
Mof_C 	C 	0.9669	0.9103	0.7075	-0.246
Mof_N 	N 	0.7503	0.6574	0.5076	-0.348
Mof_N 	N 	0.8198	0.6492	0.4075	-0.109
Mof_N 	N 	0.7485	0.5642	0.3671	-0.273
Mof_N 	N 	0.8012	0.3231	0.4315	-0.244
Mof_N 	N 	0.8103	0.3359	0.5402	-0.13
Mof_N 	N 	0.926	0.2696	0.5571	-0.262
Mof_N 	N 	0.81	0.4786	0.6931	-0.255
Mof_N 	N 	0.8674	0.5808	0.6779	-0.131
Mof_N 	N 	0.9961	0.5645	0.7309	-0.243
Mof_N 	N 	0.6539	0.5585	0.4703	-0.159
Mof_N 	N 	0.5815	0.3854	0.5462	-0.046
Mof_N 	N 	0.5008	0.4487	0.3748	-0.041
Mof_N 	N 	0.8307	0.5391	0.4807	-0.128
Mof_N 	N 	0.9547	0.3685	0.4745	-0.126
Mof_N 	N 	0.9645	0.4795	0.63	-0.121
Mof_N 	N 	0.9247	0.2386	0.4362	-0.159
Mof_N 	N 	0.1023	0.1119	0.4447	-0.024
Mof_N 	N 	0.1092	0.2353	0.2979	-0.019
Mof_N 	N 	0.8749	0.2005	0.2614	-0.034
Mof_N 	N 	0.8767	0.0489	0.3823	-0.03
Mof_N 	N 	0.9457	0.4465	0.7626	-0.155
Mof_N 	N 	0.2497	0.8426	0.0076	-0.342
Mof_N 	N 	0.1802	0.8508	0.9075	-0.123
Mof_N 	N 	0.2515	0.9358	0.8671	-0.256
Mof_N 	N 	0.1988	0.1769	0.9315	-0.247
Mof_N 	N 	0.1897	0.1641	0.0402	-0.131
Mof_N 	N 	0.074	0.2304	0.0571	-0.243
Mof_N 	N 	0.19	0.0214	0.1931	-0.291
Mof_N 	N 	0.1326	0.9192	0.1779	-0.128
Mof_N 	N 	0.0039	0.9355	0.2309	-0.254
Mof_N 	N 	0.3461	0.9415	0.9703	-0.171
Mof_N 	N 	0.4185	0.1146	0.0462	-0.059
Mof_N 	N 	0.4992	0.0513	0.8748	-0.056
Mof_N 	N 	0.1693	0.9609	0.9807	-0.132
Mof_N 	N 	0.0453	0.1315	0.9745	-0.135
Mof_N 	N 	0.0355	0.0205	0.13	-0.137
Mof_N 	N 	0.0753	0.2614	0.9362	-0.161
Mof_N 	N 	0.8977	0.3881	0.9447	-0.02
Mof_N 	N 	0.8908	0.2647	0.7979	-0.027
Mof_N 	N 	0.1251	0.2995	0.7614	-0.038
Mof_N 	N 	0.1233	0.4511	0.8823	-0.029
Mof_N 	N 	0.0543	0.0535	0.2626	-0.156
Mof_N 	N 	0.2497	0.3426	0.4924	-0.344
Mof_N 	N 	0.1802	0.3508	0.5925	-0.113
Mof_N 	N 	0.2515	0.4358	0.6329	-0.271
Mof_N 	N 	0.1988	0.6769	0.5685	-0.244
Mof_N 	N 	0.1897	0.6641	0.4598	-0.136
Mof_N 	N 	0.074	0.7304	0.4429	-0.233
Mof_N 	N 	0.19	0.5214	0.3069	-0.256
Mof_N 	N 	0.1326	0.4192	0.3221	-0.135
Mof_N 	N 	0.0039	0.4355	0.2691	-0.256
Mof_N 	N 	0.3461	0.4415	0.5297	-0.16
Mof_N 	N 	0.4185	0.6146	0.4538	-0.045
Mof_N 	N 	0.4992	0.5513	0.6252	-0.039
Mof_N 	N 	0.1693	0.4609	0.5193	-0.126
Mof_N 	N 	0.0453	0.6315	0.5255	-0.129
Mof_N 	N 	0.0355	0.5205	0.37	-0.122
Mof_N 	N 	0.0753	0.7614	0.5638	-0.166
Mof_N 	N 	0.8977	0.8881	0.5553	-0.024
Mof_N 	N 	0.8908	0.7647	0.7021	-0.027
Mof_N 	N 	0.1251	0.7995	0.7386	-0.038
Mof_N 	N 	0.1233	0.9511	0.6177	-0.028
Mof_N 	N 	0.0543	0.5535	0.2374	-0.15
Mof_N 	N 	0.7503	0.1574	0.9924	-0.35
Mof_N 	N 	0.8198	0.1492	0.0925	-0.098
Mof_N 	N 	0.7485	0.0642	0.1329	-0.288
Mof_N 	N 	0.8012	0.8231	0.0685	-0.241
Mof_N 	N 	0.8103	0.8359	0.9598	-0.134
Mof_N 	N 	0.926	0.7696	0.9429	-0.255
Mof_N 	N 	0.81	0.9786	0.8069	-0.216
Mof_N 	N 	0.8674	0.0808	0.8221	-0.14
Mof_N 	N 	0.9961	0.0645	0.7691	-0.248
Mof_N 	N 	0.6539	0.0585	0.0297	-0.176
Mof_N 	N 	0.5815	0.8854	0.9538	-0.055
Mof_N 	N 	0.5008	0.9487	0.1252	-0.05
Mof_N 	N 	0.8307	0.0391	0.0193	-0.143
Mof_N 	N 	0.9547	0.8685	0.0255	-0.142
Mof_N 	N 	0.9645	0.9795	0.87	-0.129
Mof_N 	N 	0.9247	0.7386	0.0638	-0.164
Mof_N 	N 	0.1023	0.6119	0.0553	-0.027
Mof_N 	N 	0.1092	0.7353	0.2021	-0.019
Mof_N 	N 	0.8749	0.7005	0.2386	-0.033
Mof_N 	N 	0.8767	0.5489	0.1177	-0.029
Mof_N 	N 	0.9457	0.9465	0.7374	-0.148
_end
