data_functionalizedCrystal
_audit_creation_method	'EQeq! by Chris Wilmer'
_symmetry_space_group_name_H-M	'P1'
_symmetry_Int_Tables_number	1
_symmetry_cell_setting	triclinic
loop_
_symmetry_equiv_pos_as_xyz
  x,y,z
_cell_length_a	9.847
_cell_length_b	14.929
_cell_length_c	21.957
_cell_angle_alpha	90
_cell_angle_beta	102.68
_cell_angle_gamma	90
loop_
_atom_site_label
_atom_site_type_symbol
_atom_site_fract_x
_atom_site_fract_y
_atom_site_fract_z
_atom_site_charge
Mof_Cd	Cd	0.16284	0.73912	0.324	0.441
Mof_C 	C 	0.0291	0.5559	0.45271	-0.046
Mof_C 	C 	0.8916	0.5437	0.46035	-0.025
Mof_C 	C 	0.135	0.512	0.4941	-0.011
Mof_H 	H 	0.2286	0.5209	0.4908	0.056
Mof_C 	C 	0.0601	0.6145	0.4017	0.316
Mof_C 	C 	0.7736	0.5977	0.4212	0.236
Mof_C 	C 	0.5575	0.6267	0.2897	0.106
Mof_H 	H 	0.6268	0.6212	0.2659	0.035
Mof_C 	C 	0.4489	0.6174	0.3647	0.104
Mof_H 	H 	0.4273	0.6041	0.4038	0.03
Mof_C 	C 	0.4521	0.9472	0.4462	-0.036
Mof_C 	C 	0.5887	0.976	0.4612	-0.055
Mof_C 	C 	0.3663	0.9702	0.4854	0.004
Mof_H 	H 	0.2731	0.9489	0.4761	0.071
Mof_C 	C 	0.3875	0.892	0.38874	0.298
Mof_C 	C 	0.7256	0.9482	0.4377	0.031
Mof_C 	C 	0.892	0.9691	0.3256	0.087
Mof_H 	H 	0.8753	0.0316	0.3202	0.051
Mof_C 	C 	0.8794	0.8289	0.3506	-0.165
Mof_H 	H 	0.8524	0.7736	0.3657	0.112
Mof_N 	N 	0.6798	0.5465	0.38323	-0.186
Mof_H 	H 	0.6887	0.4879	0.3813	0.135
Mof_N 	N 	0.5661	0.5927	0.34666	-0.093
Mof_N 	N 	0.4389	0.6686	0.27161	-0.109
Mof_N 	N 	0.3705	0.6625	0.31942	-0.107
Mof_N 	N 	0.6985	0.9297	0.3751	-0.164
Mof_H 	H 	0.6134	0.9303	0.3519	0.143
Mof_N 	N 	0.8128	0.9101	0.3506	-0.045
Mof_N 	N 	0.9842	0.8422	0.3262	-0.016
Mof_N 	N 	0.9943	0.9253	0.3104	-0.087
Mof_O 	O 	0.1733	0.6514	0.41023	-0.274
Mof_O 	O 	0.9694	0.6232	0.35295	-0.255
Mof_O 	O 	0.7606	0.6775	0.4276	-0.218
Mof_O 	O 	0.2921	0.8398	0.39486	-0.258
Mof_O 	O 	0.4303	0.9063	0.34003	-0.244
Mof_O 	O 	0.8388	0.9446	0.4695	-0.138
Mof_C 	C 	0.6718	0.9658	0.4124	0.306
Mof_C 	C 	0.7386	0.8341	0.3115	0.134
Mof_H 	H 	0.6425	0.8371	0.2921	0.028
Mof_C 	C 	0.9384	0.846	0.3785	0.237
Mof_H 	H 	0.0065	0.8605	0.415	-0.006
Mof_N 	N 	0.7244	0.8843	0.4168	-0.156
Mof_H 	H 	0.7145	0.8481	0.4471	0.144
Mof_N 	N 	0.7969	0.8569	0.3714	-0.045
Mof_N 	N 	0.8391	0.8072	0.2851	-0.08
Mof_N 	N 	0.9636	0.8133	0.328	-0.072
Mof_O 	O 	0.7066	0.0241	0.3816	-0.207
Mof_Cd	Cd	0.33716	0.73912	0.176	0.44
Mof_C 	C 	0.4709	0.5559	0.04729	-0.047
Mof_C 	C 	0.6084	0.5437	0.03965	-0.025
Mof_C 	C 	0.365	0.512	0.0059	-0.012
Mof_H 	H 	0.2714	0.5209	0.0092	0.055
Mof_C 	C 	0.4399	0.6145	0.0983	0.315
Mof_C 	C 	0.7264	0.5977	0.0788	0.235
Mof_C 	C 	0.9425	0.6267	0.2103	0.105
Mof_H 	H 	0.8732	0.6212	0.2341	0.035
Mof_C 	C 	0.0511	0.6174	0.1353	0.104
Mof_H 	H 	0.0727	0.6041	0.0962	0.03
Mof_C 	C 	0.0479	0.9472	0.0538	-0.036
Mof_C 	C 	0.9113	0.976	0.0388	-0.056
Mof_C 	C 	0.1337	0.9702	0.0146	0.004
Mof_H 	H 	0.2269	0.9489	0.0239	0.071
Mof_C 	C 	0.1125	0.892	0.11126	0.298
Mof_C 	C 	0.7744	0.9482	0.0623	0.03
Mof_C 	C 	0.608	0.9691	0.1744	0.087
Mof_H 	H 	0.6247	0.0316	0.1798	0.05
Mof_C 	C 	0.6206	0.8289	0.1494	-0.165
Mof_H 	H 	0.6476	0.7736	0.1343	0.112
Mof_N 	N 	0.8202	0.5465	0.11677	-0.186
Mof_H 	H 	0.8113	0.4879	0.1187	0.135
Mof_N 	N 	0.9339	0.5927	0.15334	-0.093
Mof_N 	N 	0.0611	0.6686	0.22839	-0.109
Mof_N 	N 	0.1295	0.6625	0.18058	-0.107
Mof_N 	N 	0.8015	0.9297	0.1249	-0.165
Mof_H 	H 	0.8866	0.9303	0.1481	0.143
Mof_N 	N 	0.6872	0.9101	0.1494	-0.045
Mof_N 	N 	0.5158	0.8422	0.1738	-0.014
Mof_N 	N 	0.5057	0.9253	0.1896	-0.087
Mof_O 	O 	0.3267	0.6514	0.08977	-0.274
Mof_O 	O 	0.5306	0.6232	0.14705	-0.255
Mof_O 	O 	0.7394	0.6775	0.0724	-0.218
Mof_O 	O 	0.2079	0.8398	0.10514	-0.258
Mof_O 	O 	0.0697	0.9063	0.15997	-0.244
Mof_O 	O 	0.6612	0.9446	0.0305	-0.137
Mof_C 	C 	0.8282	0.9658	0.0876	0.307
Mof_C 	C 	0.7614	0.8341	0.1885	0.133
Mof_H 	H 	0.8575	0.8371	0.2079	0.028
Mof_C 	C 	0.5616	0.846	0.1215	0.237
Mof_H 	H 	0.4935	0.8605	0.085	-0.007
Mof_N 	N 	0.7756	0.8843	0.0832	-0.156
Mof_H 	H 	0.7855	0.8481	0.0529	0.144
Mof_N 	N 	0.7031	0.8569	0.1286	-0.045
Mof_N 	N 	0.6609	0.8072	0.2149	-0.08
Mof_N 	N 	0.5364	0.8133	0.172	-0.074
Mof_O 	O 	0.7934	0.0241	0.1184	-0.206
Mof_Cd	Cd	0.83716	0.26088	0.676	0.44
Mof_C 	C 	0.9709	0.4441	0.54729	-0.047
Mof_C 	C 	0.1084	0.4563	0.53965	-0.026
Mof_C 	C 	0.865	0.488	0.5059	-0.012
Mof_H 	H 	0.7714	0.4791	0.5092	0.055
Mof_C 	C 	0.9399	0.3855	0.5983	0.315
Mof_C 	C 	0.2264	0.4023	0.5788	0.235
Mof_C 	C 	0.4425	0.3733	0.7103	0.105
Mof_H 	H 	0.3732	0.3788	0.7341	0.035
Mof_C 	C 	0.5511	0.3826	0.6353	0.104
Mof_H 	H 	0.5727	0.3959	0.5962	0.03
Mof_C 	C 	0.5479	0.0528	0.5538	-0.036
Mof_C 	C 	0.4113	0.024	0.5388	-0.055
Mof_C 	C 	0.6337	0.0298	0.5146	0.004
Mof_H 	H 	0.7269	0.0511	0.5239	0.071
Mof_C 	C 	0.6125	0.108	0.61126	0.298
Mof_C 	C 	0.2744	0.0518	0.5623	0.031
Mof_C 	C 	0.108	0.0309	0.6744	0.087
Mof_H 	H 	0.1247	0.9684	0.6798	0.051
Mof_C 	C 	0.1206	0.1711	0.6494	-0.165
Mof_H 	H 	0.1476	0.2264	0.6343	0.112
Mof_N 	N 	0.3202	0.4535	0.61677	-0.186
Mof_H 	H 	0.3113	0.5121	0.6187	0.135
Mof_N 	N 	0.4339	0.4073	0.65334	-0.093
Mof_N 	N 	0.5611	0.3314	0.72839	-0.109
Mof_N 	N 	0.6295	0.3375	0.68058	-0.107
Mof_N 	N 	0.3015	0.0703	0.6249	-0.164
Mof_H 	H 	0.3866	0.0697	0.6481	0.143
Mof_N 	N 	0.1872	0.0899	0.6494	-0.045
Mof_N 	N 	0.0158	0.1578	0.6738	-0.016
Mof_N 	N 	0.0057	0.0747	0.6896	-0.087
Mof_O 	O 	0.8267	0.3486	0.58977	-0.274
Mof_O 	O 	0.0306	0.3768	0.64705	-0.255
Mof_O 	O 	0.2394	0.3225	0.5724	-0.218
Mof_O 	O 	0.7079	0.1602	0.60514	-0.258
Mof_O 	O 	0.5697	0.0937	0.65997	-0.244
Mof_O 	O 	0.1612	0.0554	0.5305	-0.138
Mof_C 	C 	0.3282	0.0342	0.5876	0.306
Mof_C 	C 	0.2614	0.1659	0.6885	0.134
Mof_H 	H 	0.3575	0.1629	0.7079	0.028
Mof_C 	C 	0.0616	0.154	0.6215	0.237
Mof_H 	H 	0.9935	0.1395	0.585	-0.006
Mof_N 	N 	0.2756	0.1157	0.5832	-0.156
Mof_H 	H 	0.2855	0.1519	0.5529	0.144
Mof_N 	N 	0.2031	0.1431	0.6286	-0.045
Mof_N 	N 	0.1609	0.1928	0.7149	-0.08
Mof_N 	N 	0.0364	0.1867	0.672	-0.072
Mof_O 	O 	0.2934	0.9759	0.6184	-0.207
Mof_Cd	Cd	0.66284	0.26088	0.824	0.44
Mof_C 	C 	0.5291	0.4441	0.95271	-0.047
Mof_C 	C 	0.3916	0.4563	0.96035	-0.025
Mof_C 	C 	0.635	0.488	0.9941	-0.012
Mof_H 	H 	0.7286	0.4791	0.9908	0.055
Mof_C 	C 	0.5601	0.3855	0.9017	0.315
Mof_C 	C 	0.2736	0.4023	0.9212	0.235
Mof_C 	C 	0.0575	0.3733	0.7897	0.105
Mof_H 	H 	0.1268	0.3788	0.7659	0.035
Mof_C 	C 	0.9489	0.3826	0.8647	0.104
Mof_H 	H 	0.9273	0.3959	0.9038	0.03
Mof_C 	C 	0.9521	0.0528	0.9462	-0.036
Mof_C 	C 	0.0887	0.024	0.9612	-0.056
Mof_C 	C 	0.8663	0.0298	0.9854	0.004
Mof_H 	H 	0.7731	0.0511	0.9761	0.071
Mof_C 	C 	0.8875	0.108	0.88874	0.298
Mof_C 	C 	0.2256	0.0518	0.9377	0.03
Mof_C 	C 	0.392	0.0309	0.8256	0.087
Mof_H 	H 	0.3753	0.9684	0.8202	0.05
Mof_C 	C 	0.3794	0.1711	0.8506	-0.165
Mof_H 	H 	0.3524	0.2264	0.8657	0.112
Mof_N 	N 	0.1798	0.4535	0.88323	-0.186
Mof_H 	H 	0.1887	0.5121	0.8813	0.135
Mof_N 	N 	0.0661	0.4073	0.84666	-0.093
Mof_N 	N 	0.9389	0.3314	0.77161	-0.109
Mof_N 	N 	0.8705	0.3375	0.81942	-0.107
Mof_N 	N 	0.1985	0.0703	0.8751	-0.165
Mof_H 	H 	0.1134	0.0697	0.8519	0.143
Mof_N 	N 	0.3128	0.0899	0.8506	-0.045
Mof_N 	N 	0.4842	0.1578	0.8262	-0.014
Mof_N 	N 	0.4943	0.0747	0.8104	-0.087
Mof_O 	O 	0.6733	0.3486	0.91023	-0.274
Mof_O 	O 	0.4694	0.3768	0.85295	-0.255
Mof_O 	O 	0.2606	0.3225	0.9276	-0.218
Mof_O 	O 	0.7921	0.1602	0.89486	-0.258
Mof_O 	O 	0.9303	0.0937	0.84003	-0.244
Mof_O 	O 	0.3388	0.0554	0.9695	-0.137
Mof_C 	C 	0.1718	0.0342	0.9124	0.307
Mof_C 	C 	0.2386	0.1659	0.8115	0.133
Mof_H 	H 	0.1425	0.1629	0.7921	0.028
Mof_C 	C 	0.4384	0.154	0.8785	0.237
Mof_H 	H 	0.5065	0.1395	0.915	-0.007
Mof_N 	N 	0.2244	0.1157	0.9168	-0.156
Mof_H 	H 	0.2145	0.1519	0.9471	0.144
Mof_N 	N 	0.2969	0.1431	0.8714	-0.045
Mof_N 	N 	0.3391	0.1928	0.7851	-0.08
Mof_N 	N 	0.4636	0.1867	0.828	-0.074
Mof_O 	O 	0.2066	0.9759	0.8816	-0.206
_end
