data_functionalizedCrystal
_audit_creation_method	'EQeq! by Chris Wilmer'
_symmetry_space_group_name_H-M	'P1'
_symmetry_Int_Tables_number	1
_symmetry_cell_setting	triclinic
loop_
_symmetry_equiv_pos_as_xyz
  x,y,z
_cell_length_a	17.4164
_cell_length_b	14.2453
_cell_length_c	20.4424
_cell_angle_alpha	90
_cell_angle_beta	114.512
_cell_angle_gamma	90
loop_
_atom_site_label
_atom_site_type_symbol
_atom_site_fract_x
_atom_site_fract_y
_atom_site_fract_z
_atom_site_charge
Mof_Eu	Eu	0.20785	0.88692	0.20392	2.235
Mof_C 	C 	0.3571	0.4657	0.2417	0.307
Mof_C 	C 	0.4748	0.39	0.2195	0.022
Mof_H 	H 	0.507	0.4436	0.2383	0.046
Mof_O 	O 	0.6419	0.3895	0.235	-0.541
Mof_N 	N 	0.259	0.0215	0.1473	-0.232
Mof_O 	O 	0.4057	0.5292	0.2772	-0.461
Mof_O 	O 	0.2797	0.464	0.2278	-0.432
Mof_C 	C 	0.3933	0.3856	0.2135	-0.053
Mof_O 	O 	0.2498	0.797	0.1249	-0.556
Mof_C 	C 	0.2537	0.5617	0.0594	-0.009
Mof_H 	H 	0.2562	0.5285	0.0994	0.054
Mof_C 	C 	0.2928	0.1	0.1789	0.128
Mof_H 	H 	0.2888	0.1229	0.2199	-0.009
Mof_N 	N 	0.3343	0.1437	0.1451	-0.158
Mof_C 	C 	0.2539	0.6601	0.0601	-0.163
Mof_C 	C 	0.3442	0.3055	0.1862	-0.072
Mof_H 	H 	0.2886	0.3029	0.1808	0.074
Mof_O 	O 	0.6272	0.2459	0.1878	-0.609
Mof_C 	C 	0.3224	0.0875	0.0886	0.114
Mof_H 	H 	0.3431	0.1001	0.0543	-0.002
Mof_N 	N 	0.2163	0.2672	0.0105	-0.097
Mof_C 	C 	0.4629	0.2336	0.1718	-0.027
Mof_H 	H 	0.4859	0.1825	0.158	0.036
Mof_O 	O 	0.2723	0.6592	0.1806	-0.573
Mof_C 	C 	0.5094	0.3148	0.1973	-0.127
Mof_C 	C 	0.2585	0.7092	0.1269	0.512
Mof_C 	C 	0.3812	0.2298	0.1672	0.082
Mof_C 	C 	0.6009	0.318	0.2085	0.501
Mof_N 	N 	0.2787	0.014	0.0882	-0.113
Mof_C 	C 	0.1993	0.3534	0.0162	0.1
Mof_H 	H 	0.1572	0.3731	0.0299	0.008
Mof_Eu	Eu	0.70785	0.38692	0.70392	2.238
Mof_C 	C 	0.8571	0.9657	0.7417	0.313
Mof_C 	C 	0.9748	0.89	0.7195	0.037
Mof_H 	H 	0.007	0.9436	0.7383	0.04
Mof_O 	O 	0.1419	0.8895	0.735	-0.541
Mof_N 	N 	0.759	0.5215	0.6473	-0.232
Mof_O 	O 	0.9057	0.0292	0.7772	-0.463
Mof_O 	O 	0.7797	0.964	0.7278	-0.432
Mof_C 	C 	0.8933	0.8856	0.7135	-0.059
Mof_O 	O 	0.7498	0.297	0.6249	-0.556
Mof_C 	C 	0.7537	0.0617	0.5594	-0.008
Mof_H 	H 	0.7562	0.0285	0.5994	0.053
Mof_C 	C 	0.7928	0.6	0.6789	0.128
Mof_H 	H 	0.7888	0.6229	0.7199	-0.009
Mof_N 	N 	0.8343	0.6437	0.6451	-0.157
Mof_C 	C 	0.7539	0.1601	0.5601	-0.164
Mof_C 	C 	0.8442	0.8055	0.6862	-0.067
Mof_H 	H 	0.7886	0.8029	0.6808	0.072
Mof_O 	O 	0.1272	0.7459	0.6878	-0.61
Mof_C 	C 	0.8224	0.5875	0.5886	0.114
Mof_H 	H 	0.8431	0.6001	0.5543	-0.001
Mof_N 	N 	0.7163	0.7672	0.5105	-0.097
Mof_C 	C 	0.9629	0.7336	0.6718	-0.019
Mof_H 	H 	0.9859	0.6825	0.658	0.034
Mof_O 	O 	0.7723	0.1592	0.6806	-0.573
Mof_C 	C 	0.0094	0.8148	0.6973	-0.137
Mof_C 	C 	0.7585	0.2092	0.6269	0.513
Mof_C 	C 	0.8812	0.7298	0.6672	0.077
Mof_C 	C 	0.1009	0.818	0.7085	0.505
Mof_N 	N 	0.7787	0.514	0.5882	-0.113
Mof_C 	C 	0.6993	0.8534	0.5162	0.1
Mof_H 	H 	0.6572	0.8731	0.5299	0.008
Mof_Eu	Eu	0.29215	0.88692	0.79608	2.236
Mof_C 	C 	0.1429	0.4657	0.7583	0.309
Mof_C 	C 	0.0252	0.39	0.7805	0.028
Mof_H 	H 	0.993	0.4436	0.7617	0.045
Mof_O 	O 	0.8581	0.3895	0.765	-0.54
Mof_N 	N 	0.241	0.0215	0.8527	-0.231
Mof_O 	O 	0.0943	0.5292	0.7228	-0.461
Mof_O 	O 	0.2203	0.464	0.7722	-0.432
Mof_C 	C 	0.1067	0.3856	0.7865	-0.055
Mof_O 	O 	0.2502	0.797	0.8751	-0.556
Mof_C 	C 	0.2463	0.5617	0.9406	-0.008
Mof_H 	H 	0.2438	0.5285	0.9006	0.054
Mof_C 	C 	0.2072	0.1	0.8211	0.129
Mof_H 	H 	0.2112	0.1229	0.7801	-0.009
Mof_N 	N 	0.1657	0.1437	0.8549	-0.157
Mof_C 	C 	0.2461	0.6601	0.9399	-0.163
Mof_C 	C 	0.1558	0.3055	0.8138	-0.07
Mof_H 	H 	0.2114	0.3029	0.8192	0.073
Mof_O 	O 	0.8728	0.2459	0.8122	-0.61
Mof_C 	C 	0.1776	0.0875	0.9114	0.114
Mof_H 	H 	0.1569	0.1001	0.9457	-0.001
Mof_N 	N 	0.2837	0.2672	0.9895	-0.097
Mof_C 	C 	0.0371	0.2336	0.8282	-0.023
Mof_H 	H 	0.0141	0.1825	0.842	0.036
Mof_O 	O 	0.2277	0.6592	0.8194	-0.573
Mof_C 	C 	0.9906	0.3148	0.8027	-0.132
Mof_C 	C 	0.2415	0.7092	0.8731	0.512
Mof_C 	C 	0.1188	0.2298	0.8328	0.08
Mof_C 	C 	0.8991	0.318	0.7915	0.503
Mof_N 	N 	0.2213	0.014	0.9118	-0.113
Mof_C 	C 	0.3007	0.3534	0.9838	0.101
Mof_H 	H 	0.3428	0.3731	0.9701	0.008
Mof_Eu	Eu	0.79215	0.38692	0.29608	2.238
Mof_C 	C 	0.6429	0.9657	0.2583	0.309
Mof_C 	C 	0.5252	0.89	0.2805	0.024
Mof_H 	H 	0.493	0.9436	0.2617	0.047
Mof_O 	O 	0.3581	0.8895	0.265	-0.54
Mof_N 	N 	0.741	0.5215	0.3527	-0.232
Mof_O 	O 	0.5943	0.0292	0.2228	-0.461
Mof_O 	O 	0.7203	0.964	0.2722	-0.431
Mof_C 	C 	0.6067	0.8856	0.2865	-0.053
Mof_O 	O 	0.7502	0.297	0.3751	-0.556
Mof_C 	C 	0.7463	0.0617	0.4406	-0.008
Mof_H 	H 	0.7438	0.0285	0.4006	0.053
Mof_C 	C 	0.7072	0.6	0.3211	0.129
Mof_H 	H 	0.7112	0.6229	0.2801	-0.009
Mof_N 	N 	0.6657	0.6437	0.3549	-0.158
Mof_C 	C 	0.7461	0.1601	0.4399	-0.164
Mof_C 	C 	0.6558	0.8055	0.3138	-0.072
Mof_H 	H 	0.7114	0.8029	0.3192	0.074
Mof_O 	O 	0.3728	0.7459	0.3122	-0.609
Mof_C 	C 	0.6776	0.5875	0.4114	0.114
Mof_H 	H 	0.6569	0.6001	0.4457	-0.001
Mof_N 	N 	0.7837	0.7672	0.4895	-0.097
Mof_C 	C 	0.5371	0.7336	0.3282	-0.027
Mof_H 	H 	0.5141	0.6825	0.342	0.036
Mof_O 	O 	0.7277	0.1592	0.3194	-0.573
Mof_C 	C 	0.4906	0.8148	0.3027	-0.127
Mof_C 	C 	0.7415	0.2092	0.3731	0.513
Mof_C 	C 	0.6188	0.7298	0.3328	0.082
Mof_C 	C 	0.3991	0.818	0.2915	0.502
Mof_N 	N 	0.7213	0.514	0.4118	-0.113
Mof_C 	C 	0.8007	0.8534	0.4838	0.1
Mof_H 	H 	0.8428	0.8731	0.4701	0.008
Mof_Eu	Eu	0.79215	0.11308	0.79608	2.236
Mof_C 	C 	0.6429	0.5343	0.7583	0.308
Mof_C 	C 	0.5252	0.61	0.7805	0.023
Mof_H 	H 	0.493	0.5564	0.7617	0.047
Mof_O 	O 	0.3581	0.6105	0.765	-0.54
Mof_N 	N 	0.741	0.9785	0.8527	-0.231
Mof_O 	O 	0.5943	0.4708	0.7228	-0.461
Mof_O 	O 	0.7203	0.536	0.7722	-0.432
Mof_C 	C 	0.6067	0.6144	0.7865	-0.053
Mof_O 	O 	0.7502	0.203	0.8751	-0.556
Mof_C 	C 	0.7463	0.4383	0.9406	-0.008
Mof_H 	H 	0.7438	0.4715	0.9006	0.054
Mof_C 	C 	0.7072	0.9	0.8211	0.129
Mof_H 	H 	0.7112	0.8771	0.7801	-0.009
Mof_N 	N 	0.6657	0.8563	0.8549	-0.158
Mof_C 	C 	0.7461	0.3399	0.9399	-0.163
Mof_C 	C 	0.6558	0.6945	0.8138	-0.072
Mof_H 	H 	0.7114	0.6971	0.8192	0.074
Mof_O 	O 	0.3728	0.7541	0.8122	-0.609
Mof_C 	C 	0.6776	0.9125	0.9114	0.114
Mof_H 	H 	0.6569	0.8999	0.9457	-0.001
Mof_N 	N 	0.7837	0.7328	0.9895	-0.097
Mof_C 	C 	0.5371	0.7664	0.8282	-0.027
Mof_H 	H 	0.5141	0.8175	0.842	0.036
Mof_O 	O 	0.7277	0.3408	0.8194	-0.573
Mof_C 	C 	0.4906	0.6852	0.8027	-0.127
Mof_C 	C 	0.7415	0.2908	0.8731	0.512
Mof_C 	C 	0.6188	0.7702	0.8328	0.082
Mof_C 	C 	0.3991	0.682	0.7915	0.501
Mof_N 	N 	0.7213	0.986	0.9118	-0.113
Mof_C 	C 	0.8007	0.6466	0.9838	0.1
Mof_H 	H 	0.8428	0.6269	0.9701	0.008
Mof_Eu	Eu	0.29215	0.61308	0.29608	2.238
Mof_C 	C 	0.1429	0.0343	0.2583	0.313
Mof_C 	C 	0.0252	0.11	0.2805	0.037
Mof_H 	H 	0.993	0.0564	0.2617	0.04
Mof_O 	O 	0.8581	0.1105	0.265	-0.541
Mof_N 	N 	0.241	0.4785	0.3527	-0.232
Mof_O 	O 	0.0943	0.9708	0.2228	-0.463
Mof_O 	O 	0.2203	0.036	0.2722	-0.432
Mof_C 	C 	0.1067	0.1144	0.2865	-0.06
Mof_O 	O 	0.2502	0.703	0.3751	-0.556
Mof_C 	C 	0.2463	0.9383	0.4406	-0.008
Mof_H 	H 	0.2438	0.9715	0.4006	0.053
Mof_C 	C 	0.2072	0.4	0.3211	0.128
Mof_H 	H 	0.2112	0.3771	0.2801	-0.009
Mof_N 	N 	0.1657	0.3563	0.3549	-0.157
Mof_C 	C 	0.2461	0.8399	0.4399	-0.164
Mof_C 	C 	0.1558	0.1945	0.3138	-0.067
Mof_H 	H 	0.2114	0.1971	0.3192	0.072
Mof_O 	O 	0.8728	0.2541	0.3122	-0.61
Mof_C 	C 	0.1776	0.4125	0.4114	0.114
Mof_H 	H 	0.1569	0.3999	0.4457	-0.001
Mof_N 	N 	0.2837	0.2328	0.4895	-0.097
Mof_C 	C 	0.0371	0.2664	0.3282	-0.019
Mof_H 	H 	0.0141	0.3175	0.342	0.034
Mof_O 	O 	0.2277	0.8408	0.3194	-0.573
Mof_C 	C 	0.9906	0.1852	0.3027	-0.137
Mof_C 	C 	0.2415	0.7908	0.3731	0.513
Mof_C 	C 	0.1188	0.2702	0.3328	0.077
Mof_C 	C 	0.8991	0.182	0.2915	0.505
Mof_N 	N 	0.2213	0.486	0.4118	-0.113
Mof_C 	C 	0.3007	0.1466	0.4838	0.1
Mof_H 	H 	0.3428	0.1269	0.4701	0.008
Mof_Eu	Eu	0.70785	0.11308	0.20392	2.236
Mof_C 	C 	0.8571	0.5343	0.2417	0.309
Mof_C 	C 	0.9748	0.61	0.2195	0.028
Mof_H 	H 	0.007	0.5564	0.2383	0.045
Mof_O 	O 	0.1419	0.6105	0.235	-0.54
Mof_N 	N 	0.759	0.9785	0.1473	-0.231
Mof_O 	O 	0.9057	0.4708	0.2772	-0.461
Mof_O 	O 	0.7797	0.536	0.2278	-0.432
Mof_C 	C 	0.8933	0.6144	0.2135	-0.055
Mof_O 	O 	0.7498	0.203	0.1249	-0.556
Mof_C 	C 	0.7537	0.4383	0.0594	-0.009
Mof_H 	H 	0.7562	0.4715	0.0994	0.054
Mof_C 	C 	0.7928	0.9	0.1789	0.129
Mof_H 	H 	0.7888	0.8771	0.2199	-0.009
Mof_N 	N 	0.8343	0.8563	0.1451	-0.157
Mof_C 	C 	0.7539	0.3399	0.0601	-0.163
Mof_C 	C 	0.8442	0.6945	0.1862	-0.071
Mof_H 	H 	0.7886	0.6971	0.1808	0.073
Mof_O 	O 	0.1272	0.7541	0.1878	-0.61
Mof_C 	C 	0.8224	0.9125	0.0886	0.114
Mof_H 	H 	0.8431	0.8999	0.0543	-0.001
Mof_N 	N 	0.7163	0.7328	0.0105	-0.097
Mof_C 	C 	0.9629	0.7664	0.1718	-0.024
Mof_H 	H 	0.9859	0.8175	0.158	0.036
Mof_O 	O 	0.7723	0.3408	0.1806	-0.573
Mof_C 	C 	0.0094	0.6852	0.1973	-0.131
Mof_C 	C 	0.7585	0.2908	0.1269	0.512
Mof_C 	C 	0.8812	0.7702	0.1672	0.08
Mof_C 	C 	0.1009	0.682	0.2085	0.503
Mof_N 	N 	0.7787	0.986	0.0882	-0.113
Mof_C 	C 	0.6993	0.6466	0.0162	0.1
Mof_H 	H 	0.6572	0.6269	0.0299	0.008
Mof_Eu	Eu	0.20785	0.61308	0.70392	2.238
Mof_C 	C 	0.3571	0.0343	0.7417	0.309
Mof_C 	C 	0.4748	0.11	0.7195	0.024
Mof_H 	H 	0.507	0.0564	0.7383	0.047
Mof_O 	O 	0.6419	0.1105	0.735	-0.54
Mof_N 	N 	0.259	0.4785	0.6473	-0.232
Mof_O 	O 	0.4057	0.9708	0.7772	-0.461
Mof_O 	O 	0.2797	0.036	0.7278	-0.431
Mof_C 	C 	0.3933	0.1144	0.7135	-0.053
Mof_O 	O 	0.2498	0.703	0.6249	-0.556
Mof_C 	C 	0.2537	0.9383	0.5594	-0.008
Mof_H 	H 	0.2562	0.9715	0.5994	0.053
Mof_C 	C 	0.2928	0.4	0.6789	0.129
Mof_H 	H 	0.2888	0.3771	0.7199	-0.009
Mof_N 	N 	0.3343	0.3563	0.6451	-0.158
Mof_C 	C 	0.2539	0.8399	0.5601	-0.164
Mof_C 	C 	0.3442	0.1945	0.6862	-0.072
Mof_H 	H 	0.2886	0.1971	0.6808	0.074
Mof_O 	O 	0.6272	0.2541	0.6878	-0.609
Mof_C 	C 	0.3224	0.4125	0.5886	0.114
Mof_H 	H 	0.3431	0.3999	0.5543	-0.001
Mof_N 	N 	0.2163	0.2328	0.5105	-0.097
Mof_C 	C 	0.4629	0.2664	0.6718	-0.027
Mof_H 	H 	0.4859	0.3175	0.658	0.036
Mof_O 	O 	0.2723	0.8408	0.6806	-0.573
Mof_C 	C 	0.5094	0.1852	0.6973	-0.127
Mof_C 	C 	0.2585	0.7908	0.6269	0.513
Mof_C 	C 	0.3812	0.2702	0.6672	0.082
Mof_C 	C 	0.6009	0.182	0.7085	0.502
Mof_N 	N 	0.2787	0.486	0.5882	-0.113
Mof_C 	C 	0.1993	0.1466	0.5162	0.1
Mof_H 	H 	0.1572	0.1269	0.5299	0.008
Mof_C 	C 	0.25	0.5146	-0	0.048
Mof_N 	N 	0.25	0.4131	-0	-0.142
Mof_C 	C 	0.25	0.7068	-0	0.095
Mof_H 	H 	0.25	0.7721	-0	0.01
Mof_C 	C 	0.75	0.0146	0.5	0.047
Mof_N 	N 	0.75	0.9131	0.5	-0.14
Mof_C 	C 	0.75	0.2068	0.5	0.096
Mof_H 	H 	0.75	0.2721	0.5	0.01
Mof_C 	C 	0.75	0.4854	-0	0.048
Mof_N 	N 	0.75	0.5869	-0	-0.142
Mof_C 	C 	0.75	0.2932	-0	0.094
Mof_H 	H 	0.75	0.2279	-0	0.01
Mof_C 	C 	0.25	0.9854	0.5	0.047
Mof_N 	N 	0.25	0.0869	0.5	-0.14
Mof_C 	C 	0.25	0.7932	0.5	0.096
Mof_H 	H 	0.25	0.7279	0.5	0.01
_end
