# CIF file generated by openbabel 3.1.0, see https://openbabel.org
data_I
_chemical_name_common 'image0'
_cell_length_a 25.865
_cell_length_b 25.865
_cell_length_c 6.911
_cell_angle_alpha 90
_cell_angle_beta 90
_cell_angle_gamma 120
_space_group_name_H-M_alt 'P 1'
_space_group_name_Hall 'P 1'
loop_
    _symmetry_equiv_pos_as_xyz
    x,y,z
loop_
    _atom_site_label
    _atom_site_type_symbol
    _atom_site_fract_x
    _atom_site_fract_y
    _atom_site_fract_z
    _atom_site_occupancy
    Mg1      Mg       0.36753    0.05163    0.02431    1.000
    O1       O        0.36014    0.98994    0.81530    1.000
    O2       O        0.58446    0.97800    0.82950    1.000
    O3       O        0.40422    0.96886    0.57820    1.000
    C1       C        0.40271    0.98371    0.75000    1.000
    C2       C        0.45271    0.99399    0.88460    1.000
    C3       C        0.49744    0.98501    0.80970    1.000
    H1       H        0.49540    0.97510    0.67650    1.000
    C4       C        0.54503    0.98953    0.91730    1.000
    Mg2      Mg       0.03420    0.38496    0.35764    1.000
    O4       O        0.02681    0.32327    0.14863    1.000
    O5       O        0.25113    0.31133    0.16283    1.000
    O6       O        0.07089    0.30219    0.91153    1.000
    C5       C        0.06938    0.31704    0.08333    1.000
    C6       C        0.11938    0.32732    0.21793    1.000
    C7       C        0.16411    0.31834    0.14303    1.000
    H2       H        0.16207    0.30843    0.00983    1.000
    C8       C        0.21170    0.32286    0.25063    1.000
    Mg3      Mg       0.70086    0.71830    0.69098    1.000
    O7       O        0.69347    0.65661    0.48197    1.000
    O8       O        0.91779    0.64467    0.49617    1.000
    O9       O        0.73755    0.63553    0.24487    1.000
    C9       C        0.73604    0.65038    0.41667    1.000
    C10      C        0.78604    0.66066    0.55127    1.000
    C11      C        0.83077    0.65168    0.47637    1.000
    H3       H        0.82873    0.64177    0.34317    1.000
    C12      C        0.87836    0.65620    0.58397    1.000
    Mg4      Mg       0.94837    0.31590    0.02431    1.000
    O10      O        0.01006    0.37020    0.81530    1.000
    O11      O        0.02200    0.60646    0.82950    1.000
    O12      O        0.03114    0.43536    0.57820    1.000
    C13      C        0.01629    0.41900    0.75000    1.000
    C14      C        0.00601    0.45872    0.88460    1.000
    C15      C        0.01499    0.51243    0.80970    1.000
    H4       H        0.02490    0.52030    0.67650    1.000
    C16      C        0.01047    0.55550    0.91730    1.000
    Mg5      Mg       0.61504    0.64923    0.35764    1.000
    O13      O        0.67673    0.70353    0.14863    1.000
    O14      O        0.68867    0.93979    0.16283    1.000
    O15      O        0.69781    0.76869    0.91153    1.000
    C17      C        0.68296    0.75233    0.08333    1.000
    C18      C        0.67268    0.79205    0.21793    1.000
    C19      C        0.68166    0.84576    0.14303    1.000
    H5       H        0.69157    0.85363    0.00983    1.000
    C20      C        0.67714    0.88883    0.25063    1.000
    Mg6      Mg       0.28170    0.98257    0.69098    1.000
    O16      O        0.34339    0.03687    0.48197    1.000
    O17      O        0.35533    0.27313    0.49617    1.000
    O18      O        0.36447    0.10203    0.24487    1.000
    C21      C        0.34962    0.08567    0.41667    1.000
    C22      C        0.33934    0.12539    0.55127    1.000
    C23      C        0.34832    0.17910    0.47637    1.000
    H6       H        0.35823    0.18697    0.34317    1.000
    C24      C        0.34380    0.22217    0.58397    1.000
    Mg7      Mg       0.68410    0.63247    0.02431    1.000
    O19      O        0.62980    0.63986    0.81530    1.000
    O20      O        0.39354    0.41554    0.82950    1.000
    O21      O        0.56464    0.59578    0.57820    1.000
    C25      C        0.58100    0.59729    0.75000    1.000
    C26      C        0.54128    0.54729    0.88460    1.000
    C27      C        0.48757    0.50256    0.80970    1.000
    H7       H        0.47970    0.50460    0.67650    1.000
    C28      C        0.44450    0.45497    0.91730    1.000
    Mg8      Mg       0.35077    0.96580    0.35764    1.000
    O22      O        0.29647    0.97319    0.14863    1.000
    O23      O        0.06021    0.74887    0.16283    1.000
    O24      O        0.23131    0.92911    0.91153    1.000
    C29      C        0.24767    0.93062    0.08333    1.000
    C30      C        0.20795    0.88062    0.21793    1.000
    C31      C        0.15424    0.83589    0.14303    1.000
    H8       H        0.14637    0.83793    0.00983    1.000
    C32      C        0.11117    0.78830    0.25063    1.000
    Mg9      Mg       0.01743    0.29914    0.69098    1.000
    O25      O        0.96313    0.30653    0.48197    1.000
    O26      O        0.72687    0.08221    0.49617    1.000
    O27      O        0.89797    0.26245    0.24487    1.000
    C33      C        0.91433    0.26396    0.41667    1.000
    C34      C        0.87461    0.21396    0.55127    1.000
    C35      C        0.82090    0.16923    0.47637    1.000
    H9       H        0.81303    0.17127    0.34317    1.000
    C36      C        0.77783    0.12164    0.58397    1.000
    Mg10     Mg       0.63247    0.94837    0.97569    1.000
    O28      O        0.63986    0.01006    0.18470    1.000
    O29      O        0.41554    0.02200    0.17050    1.000
    O30      O        0.59578    0.03114    0.42180    1.000
    C37      C        0.59729    0.01629    0.25000    1.000
    C38      C        0.54729    0.00601    0.11540    1.000
    C39      C        0.50256    0.01499    0.19030    1.000
    H10      H        0.50460    0.02490    0.32350    1.000
    C40      C        0.45497    0.01047    0.08270    1.000
    Mg11     Mg       0.29914    0.28170    0.30902    1.000
    O31      O        0.30653    0.34339    0.51803    1.000
    O32      O        0.08221    0.35533    0.50383    1.000
    O33      O        0.26245    0.36447    0.75513    1.000
    C41      C        0.26396    0.34962    0.58333    1.000
    C42      C        0.21396    0.33934    0.44873    1.000
    C43      C        0.16923    0.34832    0.52363    1.000
    H11      H        0.17127    0.35823    0.65683    1.000
    C44      C        0.12164    0.34380    0.41603    1.000
    Mg12     Mg       0.96580    0.61504    0.64236    1.000
    O34      O        0.97319    0.67673    0.85137    1.000
    O35      O        0.74887    0.68867    0.83717    1.000
    O36      O        0.92911    0.69781    0.08847    1.000
    C45      C        0.93062    0.68296    0.91667    1.000
    C46      C        0.88062    0.67268    0.78207    1.000
    C47      C        0.83589    0.68166    0.85697    1.000
    H12      H        0.83793    0.69157    0.99017    1.000
    C48      C        0.78830    0.67714    0.74937    1.000
    Mg13     Mg       0.05163    0.68410    0.97569    1.000
    O37      O        0.98994    0.62980    0.18470    1.000
    O38      O        0.97800    0.39354    0.17050    1.000
    O39      O        0.96886    0.56464    0.42180    1.000
    C49      C        0.98371    0.58100    0.25000    1.000
    C50      C        0.99399    0.54128    0.11540    1.000
    C51      C        0.98501    0.48757    0.19030    1.000
    H13      H        0.97510    0.47970    0.32350    1.000
    C52      C        0.98953    0.44450    0.08270    1.000
    Mg14     Mg       0.71830    0.01743    0.30902    1.000
    O40      O        0.65661    0.96313    0.51803    1.000
    O41      O        0.64467    0.72687    0.50383    1.000
    O42      O        0.63553    0.89797    0.75513    1.000
    C53      C        0.65038    0.91433    0.58333    1.000
    C54      C        0.66066    0.87461    0.44873    1.000
    C55      C        0.65168    0.82090    0.52363    1.000
    H14      H        0.64177    0.81303    0.65683    1.000
    C56      C        0.65620    0.77783    0.41603    1.000
    Mg15     Mg       0.38496    0.35077    0.64236    1.000
    O43      O        0.32327    0.29647    0.85137    1.000
    O44      O        0.31133    0.06021    0.83717    1.000
    O45      O        0.30219    0.23131    0.08847    1.000
    C57      C        0.31704    0.24767    0.91667    1.000
    C58      C        0.32732    0.20795    0.78207    1.000
    C59      C        0.31834    0.15424    0.85697    1.000
    H15      H        0.30843    0.14637    0.99017    1.000
    C60      C        0.32286    0.11117    0.74937    1.000
    Mg16     Mg       0.31590    0.36753    0.97569    1.000
    O46      O        0.37020    0.36014    0.18470    1.000
    O47      O        0.60646    0.58446    0.17050    1.000
    O48      O        0.43536    0.40422    0.42180    1.000
    C61      C        0.41900    0.40271    0.25000    1.000
    C62      C        0.45872    0.45271    0.11540    1.000
    C63      C        0.51243    0.49744    0.19030    1.000
    H16      H        0.52030    0.49540    0.32350    1.000
    C64      C        0.55550    0.54503    0.08270    1.000
    Mg17     Mg       0.98257    0.70086    0.30902    1.000
    O49      O        0.03687    0.69347    0.51803    1.000
    O50      O        0.27313    0.91779    0.50383    1.000
    O51      O        0.10203    0.73755    0.75513    1.000
    C65      C        0.08567    0.73604    0.58333    1.000
    C66      C        0.12539    0.78604    0.44873    1.000
    C67      C        0.17910    0.83077    0.52363    1.000
    H17      H        0.18697    0.82873    0.65683    1.000
    C68      C        0.22217    0.87836    0.41603    1.000
    Mg18     Mg       0.64923    0.03420    0.64236    1.000
    O52      O        0.70353    0.02681    0.85137    1.000
    O53      O        0.93979    0.25113    0.83717    1.000
    O54      O        0.76869    0.07089    0.08847    1.000
    C69      C        0.75233    0.06938    0.91667    1.000
    C70      C        0.79205    0.11938    0.78207    1.000
    C71      C        0.84576    0.16411    0.85697    1.000
    H18      H        0.85363    0.16207    0.99017    1.000
    C72      C        0.88883    0.21170    0.74937    1.000
