data_functionalizedCrystal
_audit_creation_method	'EQeq! by Chris Wilmer'
_symmetry_space_group_name_H-M	'P1'
_symmetry_Int_Tables_number	1
_symmetry_cell_setting	triclinic
loop_
_symmetry_equiv_pos_as_xyz
  x,y,z
_cell_length_a	13.2249
_cell_length_b	13.2989
_cell_length_c	20.3488
_cell_angle_alpha	81.266
_cell_angle_beta	81.426
_cell_angle_gamma	81.246
loop_
_atom_site_label
_atom_site_type_symbol
_atom_site_fract_x
_atom_site_fract_y
_atom_site_fract_z
_atom_site_charge
Mof_Zn	Zn	0.84308	0.73529	0.29524	1.137
Mof_N 	N 	0.73473	0.81938	0.35314	-0.303
Mof_C 	C 	0.7329	0.9201	0.35484	0.079
Mof_H 	H 	0.7877	0.9536	0.3298	-0.035
Mof_C 	C 	0.6538	0.9774	0.3917	-0.176
Mof_H 	H 	0.6547	0.0488	0.3915	0.074
Mof_C 	C 	0.5741	0.9294	0.42871	0.099
Mof_C 	C 	0.5773	0.8249	0.42814	-0.175
Mof_H 	H 	0.5243	0.7893	0.4537	0.077
Mof_C 	C 	0.6583	0.7726	0.38999	0.073
Mof_H 	H 	0.6596	0.701	0.39	-0.038
Mof_C 	C 	0.4863	0.9916	0.4675	-0.136
Mof_H 	H 	0.4686	0.0588	0.4405	0.029
Mof_H 	H 	0.4247	0.9552	0.4756	0.042
Mof_N 	N 	0.89141	0.82871	0.20965	-0.298
Mof_C 	C 	0.8358	0.9149	0.18392	0.08
Mof_H 	H 	0.7684	0.934	0.2057	-0.04
Mof_C 	C 	0.8723	0.9776	0.12689	-0.182
Mof_H 	H 	0.8307	0.0383	0.1106	0.066
Mof_C 	C 	0.9701	0.9505	0.09411	0.115
Mof_C 	C 	0.0277	0.861	0.12057	-0.165
Mof_H 	H 	0.095	0.8399	0.0994	0.07
Mof_C 	C 	0.9868	0.8029	0.17759	0.069
Mof_H 	H 	0.0274	0.7423	0.195	-0.054
Mof_C 	C 	0.0131	0.0164	0.03211	-0.154
Mof_H 	H 	0.089	0.0107	0.0303	0.042
Mof_H 	H 	0.9843	0.0891	0.0346	0.062
Mof_N 	N 	0.7564	0.6431	0.26369	-0.303
Mof_C 	C 	0.7433	0.5496	0.29787	0.078
Mof_H 	H 	0.7787	0.5255	0.3358	-0.052
Mof_C 	C 	0.6802	0.488	0.27931	-0.176
Mof_H 	H 	0.674	0.422	0.3038	0.073
Mof_C 	C 	0.6259	0.5218	0.22509	0.117
Mof_C 	C 	0.6399	0.6189	0.19016	-0.177
Mof_H 	H 	0.6044	0.6454	0.1527	0.064
Mof_C 	C 	0.7051	0.6755	0.21032	0.087
Mof_H 	H 	0.7145	0.7407	0.1855	-0.052
Mof_C 	C 	0.5559	0.4561	0.2048	-0.148
Mof_H 	H 	0.4859	0.495	0.204	0.061
Mof_H 	H 	0.5508	0.3945	0.2386	0.059
Mof_Zn	Zn	0.29404	0.1753	0.03335	1.131
Mof_N 	N 	0.40112	0.2401	0.06589	-0.316
Mof_C 	C 	0.4027	0.2392	0.13173	0.079
Mof_H 	H 	0.3586	0.199	0.1625	-0.049
Mof_C 	C 	0.4652	0.2939	0.15661	-0.181
Mof_H 	H 	0.4655	0.289	0.2036	0.07
Mof_C 	C 	0.5282	0.3566	0.11285	0.12
Mof_C 	C 	0.5289	0.3538	0.0447	-0.186
Mof_H 	H 	0.573	0.3925	0.0128	0.078
Mof_C 	C 	0.4667	0.2959	0.02335	0.079
Mof_H 	H 	0.4695	0.2947	0.9765	-0.055
Mof_C 	C 	0.5947	0.4226	0.13605	-0.158
Mof_H 	H 	0.6001	0.4847	0.1027	0.065
Mof_H 	H 	0.6649	0.3844	0.1372	0.065
Mof_N 	N 	0.2117	0.1095	0.11876	-0.301
Mof_C 	C 	0.2474	0.0155	0.14729	0.063
Mof_H 	H 	0.3122	0.9832	0.1286	-0.062
Mof_C 	C 	0.1946	0.9639	0.2024	-0.172
Mof_H 	H 	0.2238	0.8983	0.2217	0.065
Mof_C 	C 	0.0997	0.0074	0.22945	0.108
Mof_C 	C 	0.0621	0.1049	0.20083	-0.178
Mof_H 	H 	0.9974	0.1382	0.2188	0.084
Mof_C 	C 	0.1196	0.1532	0.14592	0.083
Mof_H 	H 	0.0929	0.2198	0.1267	-0.03
Mof_C 	C 	0.0391	0.9528	0.289	-0.145
Mof_H 	H 	0.0565	0.8777	0.289	0.036
Mof_H 	H 	0.9645	0.9711	0.2857	0.052
Mof_N 	N 	0.8628	0.85952	0.52516	-0.298
Mof_C 	C 	0.944	0.8002	0.49663	0.076
Mof_H 	H 	0.9569	0.7302	0.5152	-0.041
Mof_C 	C 	0.0095	0.8364	0.44151	-0.181
Mof_H 	H 	0.066	0.7919	0.4228	0.061
Mof_C 	C 	0.9917	0.9387	0.41383	0.099
Mof_C 	C 	0.9067	0.999	0.44204	-0.168
Mof_H 	H 	0.8906	0.0685	0.4233	0.077
Mof_C 	C 	0.8451	0.9581	0.49741	0.074
Mof_H 	H 	0.788	0.0012	0.5167	-0.051
Mof_C 	C 	0.0626	0.9815	0.35438	-0.131
Mof_H 	H 	0.1351	0.9547	0.3606	0.031
Mof_H 	H 	0.0546	0.0572	0.3518	0.032
Mof_N 	N 	0.19449	0.29569	0.99581	-0.303
Mof_C 	C 	0.2137	0.3936	0.98905	0.085
Mof_H 	H 	0.2706	0.4077	0.008	-0.034
Mof_C 	C 	0.1543	0.4743	0.95583	-0.182
Mof_H 	H 	0.1712	0.5421	0.9515	0.08
Mof_C 	C 	0.0696	0.4555	0.92873	0.133
Mof_C 	C 	0.047	0.3557	0.93854	-0.186
Mof_H 	H 	0.9879	0.3402	0.9227	0.08
Mof_C 	C 	0.1108	0.2784	0.97153	0.083
Mof_H 	H 	0.0946	0.2102	0.9772	-0.044
Mof_C 	C 	0.0074	0.5382	0.88697	-0.17
Mof_H 	H 	0.0146	0.6064	0.8982	0.073
Mof_H 	H 	0.9335	0.5289	0.8964	0.069
Mof_Zn	Zn	0.76753	0.81168	0.60981	1.137
Mof_N 	N 	0.8613	0.72516	0.67345	-0.302
Mof_C 	C 	0.9641	0.7242	0.66653	0.076
Mof_H 	H 	0.9958	0.7663	0.6296	-0.033
Mof_C 	C 	0.0257	0.6645	0.71097	-0.172
Mof_H 	H 	0.098	0.6665	0.7046	0.073
Mof_C 	C 	0.9813	0.6017	0.7649	0.098
Mof_C 	C 	0.8751	0.6029	0.77129	-0.172
Mof_H 	H 	0.8415	0.5608	0.8073	0.072
Mof_C 	C 	0.8181	0.6648	0.72552	0.073
Mof_H 	H 	0.7455	0.6647	0.7311	-0.046
Mof_C 	C 	0.046	0.5322	0.81274	-0.131
Mof_H 	H 	0.1173	0.5496	0.8032	0.061
Mof_H 	H 	0.0485	0.4605	0.8041	0.035
Mof_N 	N 	0.68345	0.712	0.58438	-0.305
Mof_C 	C 	0.7276	0.6431	0.54251	0.085
Mof_H 	H 	0.7973	0.6456	0.5233	-0.052
Mof_C 	C 	0.6762	0.5697	0.52667	-0.183
Mof_H 	H 	0.7108	0.5222	0.4977	0.071
Mof_C 	C 	0.5732	0.5647	0.55305	0.12
Mof_C 	C 	0.5272	0.6379	0.59465	-0.179
Mof_H 	H 	0.4566	0.639	0.6126	0.075
Mof_C 	C 	0.5833	0.7083	0.60983	0.082
Mof_H 	H 	0.5506	0.7561	0.6392	-0.053
Mof_C 	C 	0.5145	0.4859	0.53599	-0.157
Mof_H 	H 	0.4509	0.4815	0.5682	0.066
Mof_H 	H 	0.5571	0.4179	0.5399	0.064
Mof_Zn	Zn	0.15692	0.26471	0.70476	1.136
Mof_N 	N 	0.26527	0.18062	0.64686	-0.304
Mof_C 	C 	0.2671	0.0799	0.64516	0.079
Mof_H 	H 	0.2123	0.0464	0.6702	-0.035
Mof_C 	C 	0.3462	0.0226	0.6083	-0.176
Mof_H 	H 	0.3453	0.9512	0.6085	0.074
Mof_C 	C 	0.4259	0.0706	0.57129	0.099
Mof_C 	C 	0.4227	0.1751	0.57186	-0.175
Mof_H 	H 	0.4757	0.2107	0.5463	0.077
Mof_C 	C 	0.3417	0.2274	0.61001	0.073
Mof_H 	H 	0.3404	0.299	0.61	-0.038
Mof_C 	C 	0.5137	0.0084	0.5325	-0.136
Mof_H 	H 	0.5314	0.9412	0.5595	0.029
Mof_H 	H 	0.5753	0.0448	0.5244	0.042
Mof_N 	N 	0.10859	0.17129	0.79035	-0.298
Mof_C 	C 	0.1642	0.0851	0.81608	0.08
Mof_H 	H 	0.2316	0.066	0.7943	-0.04
Mof_C 	C 	0.1277	0.0224	0.87311	-0.182
Mof_H 	H 	0.1693	0.9617	0.8894	0.066
Mof_C 	C 	0.0299	0.0495	0.90589	0.115
Mof_C 	C 	0.9723	0.139	0.87943	-0.165
Mof_H 	H 	0.905	0.1601	0.9006	0.07
Mof_C 	C 	0.0132	0.1971	0.82241	0.069
Mof_H 	H 	0.9726	0.2577	0.805	-0.054
Mof_C 	C 	0.9869	0.9836	0.96789	-0.154
Mof_H 	H 	0.911	0.9893	0.9697	0.042
Mof_H 	H 	0.0157	0.9109	0.9654	0.062
Mof_N 	N 	0.2436	0.3569	0.73631	-0.303
Mof_C 	C 	0.2567	0.4504	0.70213	0.078
Mof_H 	H 	0.2213	0.4745	0.6642	-0.052
Mof_C 	C 	0.3198	0.512	0.72069	-0.176
Mof_H 	H 	0.326	0.578	0.6962	0.073
Mof_C 	C 	0.3741	0.4782	0.77491	0.117
Mof_C 	C 	0.3601	0.3811	0.80984	-0.177
Mof_H 	H 	0.3956	0.3546	0.8473	0.064
Mof_C 	C 	0.2949	0.3245	0.78968	0.087
Mof_H 	H 	0.2855	0.2593	0.8145	-0.052
Mof_C 	C 	0.4441	0.5439	0.7952	-0.148
Mof_H 	H 	0.5141	0.505	0.796	0.061
Mof_H 	H 	0.4492	0.6055	0.7614	0.059
Mof_Zn	Zn	0.70596	0.8247	0.96664	1.131
Mof_N 	N 	0.59888	0.7599	0.93411	-0.316
Mof_C 	C 	0.5973	0.7608	0.86827	0.079
Mof_H 	H 	0.6414	0.801	0.8375	-0.049
Mof_C 	C 	0.5348	0.7061	0.84339	-0.181
Mof_H 	H 	0.5345	0.711	0.7964	0.07
Mof_C 	C 	0.4718	0.6434	0.88715	0.12
Mof_C 	C 	0.4711	0.6462	0.9553	-0.186
Mof_H 	H 	0.427	0.6075	0.9872	0.078
Mof_C 	C 	0.5333	0.7041	0.97665	0.079
Mof_H 	H 	0.5305	0.7053	0.0235	-0.055
Mof_C 	C 	0.4053	0.5774	0.86395	-0.158
Mof_H 	H 	0.3999	0.5153	0.8973	0.065
Mof_H 	H 	0.3351	0.6156	0.8628	0.065
Mof_N 	N 	0.7883	0.8905	0.88124	-0.301
Mof_C 	C 	0.7526	0.9845	0.85271	0.063
Mof_H 	H 	0.6878	0.0168	0.8714	-0.062
Mof_C 	C 	0.8054	0.0361	0.7976	-0.172
Mof_H 	H 	0.7762	0.1017	0.7783	0.065
Mof_C 	C 	0.9003	0.9926	0.77055	0.108
Mof_C 	C 	0.9379	0.8951	0.79917	-0.178
Mof_H 	H 	0.0026	0.8618	0.7812	0.084
Mof_C 	C 	0.8804	0.8468	0.85408	0.083
Mof_H 	H 	0.9071	0.7802	0.8733	-0.03
Mof_C 	C 	0.9609	0.0472	0.711	-0.145
Mof_H 	H 	0.9435	0.1223	0.711	0.036
Mof_H 	H 	0.0355	0.0289	0.7143	0.052
Mof_N 	N 	0.1372	0.14048	0.47484	-0.298
Mof_C 	C 	0.056	0.1998	0.50337	0.076
Mof_H 	H 	0.0431	0.2698	0.4848	-0.041
Mof_C 	C 	0.9905	0.1636	0.55849	-0.181
Mof_H 	H 	0.934	0.2081	0.5772	0.061
Mof_C 	C 	0.0083	0.0613	0.58617	0.099
Mof_C 	C 	0.0933	0.001	0.55796	-0.168
Mof_H 	H 	0.1094	0.9315	0.5767	0.077
Mof_C 	C 	0.1549	0.0419	0.50259	0.074
Mof_H 	H 	0.212	0.9988	0.4833	-0.051
Mof_C 	C 	0.9374	0.0185	0.64562	-0.131
Mof_H 	H 	0.8649	0.0453	0.6394	0.031
Mof_H 	H 	0.9454	0.9428	0.6482	0.032
Mof_N 	N 	0.80551	0.70431	0.00419	-0.303
Mof_C 	C 	0.7863	0.6064	0.01095	0.085
Mof_H 	H 	0.7294	0.5923	0.992	-0.034
Mof_C 	C 	0.8457	0.5257	0.04417	-0.182
Mof_H 	H 	0.8288	0.4579	0.0485	0.08
Mof_C 	C 	0.9304	0.5445	0.07127	0.133
Mof_C 	C 	0.953	0.6443	0.06146	-0.186
Mof_H 	H 	0.0121	0.6598	0.0773	0.08
Mof_C 	C 	0.8892	0.7216	0.02847	0.083
Mof_H 	H 	0.9054	0.7898	0.0228	-0.044
Mof_C 	C 	0.9926	0.4618	0.11303	-0.17
Mof_H 	H 	0.9854	0.3936	0.1018	0.073
Mof_H 	H 	0.0665	0.4711	0.1036	0.069
Mof_Zn	Zn	0.23247	0.18832	0.39019	1.137
Mof_N 	N 	0.1387	0.27484	0.32655	-0.302
Mof_C 	C 	0.0359	0.2758	0.33347	0.076
Mof_H 	H 	0.0042	0.2337	0.3704	-0.033
Mof_C 	C 	0.9743	0.3355	0.28903	-0.172
Mof_H 	H 	0.902	0.3335	0.2954	0.073
Mof_C 	C 	0.0187	0.3983	0.2351	0.098
Mof_C 	C 	0.1249	0.3971	0.22871	-0.172
Mof_H 	H 	0.1585	0.4392	0.1927	0.072
Mof_C 	C 	0.1819	0.3352	0.27448	0.073
Mof_H 	H 	0.2545	0.3353	0.2689	-0.046
Mof_C 	C 	0.954	0.4678	0.18726	-0.131
Mof_H 	H 	0.8827	0.4504	0.1968	0.061
Mof_H 	H 	0.9515	0.5395	0.1959	0.035
Mof_N 	N 	0.31655	0.288	0.41562	-0.305
Mof_C 	C 	0.2724	0.3569	0.45749	0.085
Mof_H 	H 	0.2027	0.3544	0.4767	-0.052
Mof_C 	C 	0.3238	0.4303	0.47333	-0.183
Mof_H 	H 	0.2892	0.4778	0.5023	0.071
Mof_C 	C 	0.4268	0.4353	0.44695	0.12
Mof_C 	C 	0.4728	0.3621	0.40535	-0.179
Mof_H 	H 	0.5434	0.361	0.3874	0.075
Mof_C 	C 	0.4167	0.2917	0.39017	0.082
Mof_H 	H 	0.4494	0.2439	0.3608	-0.053
Mof_C 	C 	0.4855	0.5141	0.46401	-0.157
Mof_H 	H 	0.5491	0.5185	0.4318	0.066
Mof_H 	H 	0.4429	0.5821	0.4601	0.064
_end
