data_functionalizedCrystal
_audit_creation_method	'EQeq! by Chris Wilmer'
_symmetry_space_group_name_H-M	'P1'
_symmetry_Int_Tables_number	1
_symmetry_cell_setting	triclinic
loop_
_symmetry_equiv_pos_as_xyz
  x,y,z
_cell_length_a	22.149
_cell_length_b	9.779
_cell_length_c	19.376
_cell_angle_alpha	90
_cell_angle_beta	119.161
_cell_angle_gamma	90
loop_
_atom_site_label
_atom_site_type_symbol
_atom_site_fract_x
_atom_site_fract_y
_atom_site_fract_z
_atom_site_charge
Mof_Gd	Gd	0.01106	0.30853	0.4557	1.679
Mof_Co	Co	0.81975	0.37106	0.20502	1.159
Mof_O 	O 	0.9019	0.3915	0.3306	-0.481
Mof_O 	O 	0.9436	0.5352	0.4332	-0.506
Mof_O 	O 	0.7721	0.8561	0.41	-0.359
Mof_O 	O 	0.8654	0.7252	0.4815	-0.413
Mof_H 	H 	0.894	0.666	0.483	0.033
Mof_O 	O 	0.8726	0.4984	0.1583	-0.332
Mof_O 	O 	0.8817	0.2251	0.1841	-0.343
Mof_O 	O 	0.9608	0.2094	0.1427	-0.334
Mof_O 	O 	0.9424	0.4782	0.1011	-0.341
Mof_O 	O 	0.0469	0.912	0.5909	-0.341
Mof_O 	O 	0.0492	0.1349	0.5626	-0.356
Mof_N 	N 	0.7858	0.5427	0.2419	-0.217
Mof_N 	N 	0.7344	0.7163	0.2739	-0.218
Mof_C 	C 	0.8951	0.5	0.3641	0.322
Mof_C 	C 	0.8293	0.5788	0.3206	-0.04
Mof_C 	C 	0.7974	0.6849	0.3411	-0.041
Mof_C 	C 	0.7303	0.6281	0.2169	0.117
Mof_H 	H 	0.6931	0.6265	0.1659	-0.005
Mof_C 	C 	0.8146	0.7589	0.4167	0.345
Mof_C 	C 	0.9189	0.2729	0.1565	0.248
Mof_C 	C 	0.9102	0.4326	0.1375	0.22
Mof_C 	C 	0.0281	0.0144	0.5454	0.193
Mof_Gd	Gd	0.51106	0.80853	0.4557	1.688
Mof_Co	Co	0.31975	0.87106	0.20502	1.162
Mof_O 	O 	0.4019	0.8915	0.3306	-0.461
Mof_O 	O 	0.4436	0.0352	0.4332	-0.51
Mof_O 	O 	0.2721	0.3561	0.41	-0.364
Mof_O 	O 	0.3654	0.2252	0.4815	-0.415
Mof_H 	H 	0.394	0.166	0.483	0.036
Mof_O 	O 	0.3726	0.9984	0.1583	-0.325
Mof_O 	O 	0.3817	0.7251	0.1841	-0.341
Mof_O 	O 	0.4608	0.7094	0.1427	-0.333
Mof_O 	O 	0.4424	0.9782	0.1011	-0.335
Mof_O 	O 	0.5469	0.412	0.5909	-0.369
Mof_O 	O 	0.5492	0.6349	0.5626	-0.363
Mof_N 	N 	0.2858	0.0427	0.2419	-0.226
Mof_N 	N 	0.2344	0.2163	0.2739	-0.219
Mof_C 	C 	0.3951	-1.37761e-32	0.3641	0.292
Mof_C 	C 	0.3293	0.0788	0.3206	-0.037
Mof_C 	C 	0.2974	0.1849	0.3411	-0.047
Mof_C 	C 	0.2303	0.1281	0.2169	0.113
Mof_H 	H 	0.1931	0.1265	0.1659	-0.01
Mof_C 	C 	0.3146	0.2589	0.4167	0.345
Mof_C 	C 	0.4189	0.7729	0.1565	0.25
Mof_C 	C 	0.4102	0.9326	0.1375	0.219
Mof_C 	C 	0.5281	0.5144	0.5454	0.252
Mof_Gd	Gd	0.98894	0.30853	0.0443	1.653
Mof_Co	Co	0.18025	0.37106	0.29498	1.158
Mof_O 	O 	0.0981	0.3915	0.1694	-0.478
Mof_O 	O 	0.0564	0.5352	0.0668	-0.5
Mof_O 	O 	0.2279	0.8561	0.09	-0.359
Mof_O 	O 	0.1346	0.7252	0.0185	-0.413
Mof_H 	H 	0.106	0.666	0.017	0.037
Mof_O 	O 	0.1274	0.4984	0.3417	-0.331
Mof_O 	O 	0.1183	0.2251	0.3159	-0.342
Mof_O 	O 	0.0392	0.2094	0.3573	-0.333
Mof_O 	O 	0.0576	0.4782	0.3989	-0.339
Mof_O 	O 	0.9531	0.912	0.9091	-0.335
Mof_O 	O 	0.9508	0.1349	0.9374	-0.352
Mof_N 	N 	0.2142	0.5427	0.2581	-0.217
Mof_N 	N 	0.2656	0.7163	0.2261	-0.217
Mof_C 	C 	0.1049	0.5	0.1359	0.321
Mof_C 	C 	0.1707	0.5788	0.1794	-0.039
Mof_C 	C 	0.2026	0.6849	0.1589	-0.041
Mof_C 	C 	0.2697	0.6281	0.2831	0.117
Mof_H 	H 	0.3069	0.6265	0.3341	-0.005
Mof_C 	C 	0.1854	0.7589	0.0833	0.346
Mof_C 	C 	0.0811	0.2729	0.3435	0.25
Mof_C 	C 	0.0898	0.4326	0.3625	0.221
Mof_C 	C 	0.9719	0.0144	0.9546	0.193
Mof_Gd	Gd	0.48894	0.80853	0.0443	1.681
Mof_Co	Co	0.68025	0.87106	0.29498	1.162
Mof_O 	O 	0.5981	0.8915	0.1694	-0.462
Mof_O 	O 	0.5564	0.0352	0.0668	-0.51
Mof_O 	O 	0.7279	0.3561	0.09	-0.365
Mof_O 	O 	0.6346	0.2252	0.0185	-0.415
Mof_H 	H 	0.606	0.166	0.017	0.036
Mof_O 	O 	0.6274	0.9984	0.3417	-0.325
Mof_O 	O 	0.6183	0.7251	0.3159	-0.341
Mof_O 	O 	0.5392	0.7094	0.3573	-0.334
Mof_O 	O 	0.5576	0.9782	0.3989	-0.334
Mof_O 	O 	0.4531	0.412	0.9091	-0.37
Mof_O 	O 	0.4508	0.6349	0.9374	-0.362
Mof_N 	N 	0.7142	0.0427	0.2581	-0.226
Mof_N 	N 	0.7656	0.2163	0.2261	-0.219
Mof_C 	C 	0.6049	0	0.1359	0.293
Mof_C 	C 	0.6707	0.0788	0.1794	-0.038
Mof_C 	C 	0.7026	0.1849	0.1589	-0.047
Mof_C 	C 	0.7697	0.1281	0.2831	0.113
Mof_H 	H 	0.8069	0.1265	0.3341	-0.011
Mof_C 	C 	0.6854	0.2589	0.0833	0.345
Mof_C 	C 	0.5811	0.7729	0.3435	0.25
Mof_C 	C 	0.5898	0.9326	0.3625	0.219
Mof_C 	C 	0.4719	0.5144	0.9546	0.254
Mof_Gd	Gd	0.98894	0.69147	0.5443	1.685
Mof_Co	Co	0.18025	0.62894	0.79498	1.158
Mof_O 	O 	0.0981	0.6085	0.6694	-0.482
Mof_O 	O 	0.0564	0.4648	0.5668	-0.507
Mof_O 	O 	0.2279	0.1439	0.59	-0.371
Mof_O 	O 	0.1346	0.2748	0.5185	-0.417
Mof_H 	H 	0.106	0.334	0.517	0.035
Mof_O 	O 	0.1274	0.5016	0.8417	-0.337
Mof_O 	O 	0.1183	0.7749	0.8159	-0.337
Mof_O 	O 	0.0392	0.7906	0.8573	-0.329
Mof_O 	O 	0.0576	0.5218	0.8989	-0.345
Mof_O 	O 	0.9531	0.088	0.4091	-0.401
Mof_O 	O 	0.9508	0.8651	0.4374	-0.374
Mof_N 	N 	0.2142	0.4573	0.7581	-0.217
Mof_N 	N 	0.2656	0.2837	0.7261	-0.221
Mof_C 	C 	0.1049	0.5	0.6359	0.321
Mof_C 	C 	0.1707	0.4212	0.6794	-0.041
Mof_C 	C 	0.2026	0.3151	0.6589	-0.045
Mof_C 	C 	0.2697	0.3719	0.7831	0.114
Mof_H 	H 	0.3069	0.3735	0.8341	-0.008
Mof_C 	C 	0.1854	0.2411	0.5833	0.345
Mof_C 	C 	0.0811	0.7271	0.8435	0.248
Mof_C 	C 	0.0898	0.5674	0.8625	0.22
Mof_C 	C 	0.9719	0.9856	0.4546	0.311
Mof_Gd	Gd	0.48894	0.19147	0.5443	1.658
Mof_Co	Co	0.68025	0.12894	0.79498	1.154
Mof_O 	O 	0.5981	0.1085	0.6694	-0.472
Mof_O 	O 	0.5564	0.9648	0.5668	-0.469
Mof_O 	O 	0.7279	0.6439	0.59	-0.367
Mof_O 	O 	0.6346	0.7748	0.5185	-0.417
Mof_H 	H 	0.606	0.834	0.517	0.035
Mof_O 	O 	0.6274	0.0016	0.8417	-0.344
Mof_O 	O 	0.6183	0.2749	0.8159	-0.338
Mof_O 	O 	0.5392	0.2906	0.8573	-0.328
Mof_O 	O 	0.5576	0.0218	0.8989	-0.349
Mof_O 	O 	0.4531	0.588	0.4091	-0.371
Mof_O 	O 	0.4508	0.3651	0.4374	-0.365
Mof_N 	N 	0.7142	0.9573	0.7581	-0.211
Mof_N 	N 	0.7656	0.7837	0.7261	-0.216
Mof_C 	C 	0.6049	0	0.6359	0.262
Mof_C 	C 	0.6707	0.9212	0.6794	-0.003
Mof_C 	C 	0.7026	0.8151	0.6589	-0.053
Mof_C 	C 	0.7697	0.8719	0.7831	0.119
Mof_H 	H 	0.8069	0.8735	0.8341	-0.001
Mof_C 	C 	0.6854	0.7411	0.5833	0.352
Mof_C 	C 	0.5811	0.2271	0.8435	0.247
Mof_C 	C 	0.5898	0.0674	0.8625	0.222
Mof_C 	C 	0.4719	0.4856	0.4546	0.252
Mof_Gd	Gd	0.01106	0.69147	0.9557	1.667
Mof_Co	Co	0.81975	0.62894	0.70502	1.159
Mof_O 	O 	0.9019	0.6085	0.8306	-0.479
Mof_O 	O 	0.9436	0.4648	0.9332	-0.5
Mof_O 	O 	0.7721	0.1439	0.91	-0.37
Mof_O 	O 	0.8654	0.2748	0.9815	-0.415
Mof_H 	H 	0.894	0.334	0.983	0.04
Mof_O 	O 	0.8726	0.5016	0.6583	-0.336
Mof_O 	O 	0.8817	0.7749	0.6841	-0.336
Mof_O 	O 	0.9608	0.7906	0.6427	-0.327
Mof_O 	O 	0.9424	0.5218	0.6011	-0.344
Mof_O 	O 	0.0469	0.088	0.0909	-0.394
Mof_O 	O 	0.0492	0.8651	0.0626	-0.37
Mof_N 	N 	0.7858	0.4573	0.7419	-0.217
Mof_N 	N 	0.7344	0.2837	0.7739	-0.221
Mof_C 	C 	0.8951	0.5	0.8641	0.32
Mof_C 	C 	0.8293	0.4212	0.8206	-0.039
Mof_C 	C 	0.7974	0.3151	0.8411	-0.045
Mof_C 	C 	0.7303	0.3719	0.7169	0.115
Mof_H 	H 	0.6931	0.3735	0.6659	-0.008
Mof_C 	C 	0.8146	0.2411	0.9167	0.346
Mof_C 	C 	0.9189	0.7271	0.6565	0.248
Mof_C 	C 	0.9102	0.5674	0.6375	0.221
Mof_C 	C 	0.0281	0.9856	0.0454	0.308
Mof_Gd	Gd	0.51106	0.19147	0.9557	1.658
Mof_Co	Co	0.31975	0.12894	0.70502	1.154
Mof_O 	O 	0.4019	0.1085	0.8306	-0.471
Mof_O 	O 	0.4436	0.9648	0.9332	-0.465
Mof_O 	O 	0.2721	0.6439	0.91	-0.367
Mof_O 	O 	0.3654	0.7748	0.9815	-0.417
Mof_H 	H 	0.394	0.834	0.983	0.037
Mof_O 	O 	0.3726	0.0016	0.6583	-0.344
Mof_O 	O 	0.3817	0.2749	0.6841	-0.339
Mof_O 	O 	0.4608	0.2906	0.6427	-0.329
Mof_O 	O 	0.4424	0.0218	0.6011	-0.349
Mof_O 	O 	0.5469	0.588	0.0909	-0.371
Mof_O 	O 	0.5492	0.3651	0.0626	-0.364
Mof_N 	N 	0.2858	0.9573	0.7419	-0.212
Mof_N 	N 	0.2344	0.7837	0.7739	-0.217
Mof_C 	C 	0.3951	0	0.8641	0.258
Mof_C 	C 	0.3293	0.9212	0.8206	-0.001
Mof_C 	C 	0.2974	0.8151	0.8411	-0.054
Mof_C 	C 	0.2303	0.8719	0.7169	0.118
Mof_H 	H 	0.1931	0.8735	0.6659	-0.002
Mof_C 	C 	0.3146	0.7411	0.9167	0.352
Mof_C 	C 	0.4189	0.2271	0.6565	0.247
Mof_C 	C 	0.4102	0.0674	0.6375	0.222
Mof_C 	C 	0.5281	0.4856	0.0454	0.251
_end
