data_functionalizedCrystal
_audit_creation_method	'EQeq! by Chris Wilmer'
_symmetry_space_group_name_H-M	'P1'
_symmetry_Int_Tables_number	1
_symmetry_cell_setting	triclinic
loop_
_symmetry_equiv_pos_as_xyz
  x,y,z
_cell_length_a	27.253
_cell_length_b	27.253
_cell_length_c	4.1475
_cell_angle_alpha	90
_cell_angle_beta	90
_cell_angle_gamma	90
loop_
_atom_site_label
_atom_site_type_symbol
_atom_site_fract_x
_atom_site_fract_y
_atom_site_fract_z
_atom_site_charge
Mof_Zn	Zn	0.28048	0.21397	0.8651	1.21
Mof_O 	O 	0.2149	0.2431	0.985	-0.846
Mof_H 	H 	0.1937	0.2543	0.8712	0.348
Mof_N 	N 	0.2487	0.1457	0.805	-0.297
Mof_C 	C 	0.2703	0.1126	0.983	0.089
Mof_H 	H 	0.2989	0.1189	0.0979	-0.03
Mof_N 	N 	0.2476	0.0682	0.988	-0.148
Mof_C 	C 	0.2131	0.1243	0.696	0.149
Mof_O 	O 	0.2728	0.845	0.428	-0.541
Mof_C 	C 	0.1798	0.1465	0.492	-0.205
Mof_H 	H 	0.1839	0.1791	0.4317	0.08
Mof_O 	O 	0.3122	0.8698	0.785	-0.249
Mof_C 	C 	0.1406	0.12	0.378	0.103
Mof_C 	C 	0.1083	0.144	0.175	-0.131
Mof_H 	H 	0.1144	0.1767	0.1246	0.077
Mof_C 	C 	0.0676	0.1218	0.043	0.008
Mof_H 	H 	0.046	0.1377	0.9045	0.02
Mof_C 	C 	0.0621	0.0734	0.136	-0.058
Mof_H 	H 	0.0352	0.0561	0.0584	0.043
Mof_C 	C 	0.0943	0.0495	0.338	-0.055
Mof_H 	H 	0.0883	0.0168	0.3876	0.046
Mof_C 	C 	0.135	0.0718	0.47	-0.002
Mof_C 	C 	0.1679	0.0496	0.673	-0.084
Mof_H 	H 	0.1636	0.0169	0.7326	0.056
Mof_C 	C 	0.2073	0.0759	0.788	0.021
Mof_C 	C 	0.2622	0.0201	0.135	0.155
Mof_C 	C 	0.2808	0.9274	0.333	-0.169
Mof_C 	C 	0.3098	0.0035	0.14	-0.17
Mof_H 	H 	0.335	0.0243	0.0762	0.09
Mof_C 	C 	0.3208	0.956	0.24	0.098
Mof_H 	H 	0.3528	0.9442	0.245	0.008
Mof_C 	C 	0.2314	0.9405	0.336	0.012
Mof_H 	H 	0.206	0.9197	0.3995	0.027
Mof_C 	C 	0.2249	0.9886	0.232	-0.096
Mof_H 	H 	0.193	0.0007	0.2274	0.063
Mof_C 	C 	0.297	0.8806	0.496	0.479
Mof_O 	O 	0.3413	0.8758	0.609	-0.212
Mof_C 	C 	0.2921	0.0119	0.399	-0.032
Mof_H 	H 	0.3058	0.0384	0.5072	0.048
Mof_C 	C 	0.3019	0.965	0.503	-0.027
Mof_H 	H 	0.3219	0.959	0.6809	0.055
Mof_C 	C 	0.2508	0.9336	0.071	0.073
Mof_H 	H 	0.237	0.907	0.964	0.011
Mof_C 	C 	0.242	0.9811	0.975	-0.105
Mof_H 	H 	0.2219	0.9868	0.7978	0.072
Mof_Zn	Zn	0.78048	0.71397	0.3651	1.21
Mof_O 	O 	0.7149	0.7431	0.485	-0.847
Mof_H 	H 	0.6937	0.7543	0.3712	0.349
Mof_N 	N 	0.7487	0.6457	0.305	-0.294
Mof_C 	C 	0.7703	0.6126	0.483	0.079
Mof_H 	H 	0.7989	0.6189	0.5979	-0.022
Mof_N 	N 	0.7476	0.5682	0.488	-0.15
Mof_C 	C 	0.7131	0.6243	0.196	0.146
Mof_O 	O 	0.7728	0.345	0.928	-0.54
Mof_C 	C 	0.6798	0.6465	0.992	-0.198
Mof_H 	H 	0.6839	0.6791	0.9317	0.081
Mof_O 	O 	0.8122	0.3698	0.285	-0.246
Mof_C 	C 	0.6406	0.62	0.878	0.101
Mof_C 	C 	0.6083	0.644	0.675	-0.123
Mof_H 	H 	0.6144	0.6767	0.6246	0.076
Mof_C 	C 	0.5676	0.6218	0.543	0.005
Mof_H 	H 	0.546	0.6377	0.4045	0.021
Mof_C 	C 	0.5621	0.5734	0.636	-0.054
Mof_H 	H 	0.5352	0.5561	0.5584	0.042
Mof_C 	C 	0.5943	0.5495	0.838	-0.058
Mof_H 	H 	0.5883	0.5168	0.8876	0.046
Mof_C 	C 	0.635	0.5718	0.97	0.001
Mof_C 	C 	0.6679	0.5496	0.173	-0.088
Mof_H 	H 	0.6636	0.5169	0.2326	0.058
Mof_C 	C 	0.7073	0.5759	0.288	0.024
Mof_C 	C 	0.7622	0.5201	0.635	0.165
Mof_C 	C 	0.7808	0.4274	0.833	-0.173
Mof_C 	C 	0.8098	0.5035	0.64	-0.257
Mof_H 	H 	0.835	0.5243	0.5762	0.122
Mof_C 	C 	0.8208	0.456	0.74	0.175
Mof_H 	H 	0.8528	0.4442	0.745	-0.019
Mof_C 	C 	0.7314	0.4405	0.836	0.118
Mof_H 	H 	0.706	0.4197	0.8995	-0.012
Mof_C 	C 	0.7249	0.4886	0.732	-0.209
Mof_H 	H 	0.693	0.5007	0.7274	0.102
Mof_C 	C 	0.797	0.3806	0.996	0.471
Mof_O 	O 	0.8413	0.3758	0.109	-0.206
Mof_C 	C 	0.7921	0.5119	0.899	0.041
Mof_H 	H 	0.8058	0.5384	0.0072	0.024
Mof_C 	C 	0.8019	0.465	0.003	-0.092
Mof_H 	H 	0.8219	0.459	0.1809	0.078
Mof_C 	C 	0.7508	0.4336	0.571	-0.024
Mof_H 	H 	0.737	0.407	0.464	0.045
Mof_C 	C 	0.742	0.4811	0.475	0.002
Mof_H 	H 	0.7219	0.4868	0.2978	0.034
Mof_Zn	Zn	0.71952	0.78603	0.8651	1.211
Mof_O 	O 	0.7851	0.7569	0.985	-0.845
Mof_H 	H 	0.8063	0.7457	0.8712	0.349
Mof_N 	N 	0.7513	0.8543	0.805	-0.296
Mof_C 	C 	0.7297	0.8874	0.983	0.09
Mof_H 	H 	0.7011	0.8811	0.0979	-0.029
Mof_N 	N 	0.7524	0.9318	0.988	-0.147
Mof_C 	C 	0.7869	0.8757	0.696	0.15
Mof_O 	O 	0.7272	0.155	0.428	-0.54
Mof_C 	C 	0.8202	0.8535	0.492	-0.204
Mof_H 	H 	0.8161	0.8209	0.4317	0.081
Mof_O 	O 	0.6878	0.1302	0.785	-0.248
Mof_C 	C 	0.8594	0.88	0.378	0.104
Mof_C 	C 	0.8917	0.856	0.175	-0.13
Mof_H 	H 	0.8856	0.8233	0.1246	0.078
Mof_C 	C 	0.9324	0.8782	0.043	0.009
Mof_H 	H 	0.954	0.8623	0.9045	0.02
Mof_C 	C 	0.9379	0.9266	0.136	-0.058
Mof_H 	H 	0.9648	0.9439	0.0584	0.043
Mof_C 	C 	0.9057	0.9505	0.338	-0.055
Mof_H 	H 	0.9117	0.9832	0.3876	0.046
Mof_C 	C 	0.865	0.9282	0.47	-0.002
Mof_C 	C 	0.8321	0.9504	0.673	-0.084
Mof_H 	H 	0.8364	0.9831	0.7326	0.056
Mof_C 	C 	0.7927	0.9241	0.788	0.021
Mof_C 	C 	0.7378	0.9799	0.135	0.155
Mof_C 	C 	0.7192	0.0726	0.333	-0.169
Mof_C 	C 	0.6902	0.9965	0.14	-0.17
Mof_H 	H 	0.665	0.9757	0.0762	0.09
Mof_C 	C 	0.6792	0.044	0.24	0.098
Mof_H 	H 	0.6472	0.0558	0.245	0.008
Mof_C 	C 	0.7686	0.0595	0.336	0.012
Mof_H 	H 	0.794	0.0803	0.3995	0.027
Mof_C 	C 	0.7751	0.0114	0.232	-0.096
Mof_H 	H 	0.807	0.9993	0.2274	0.063
Mof_C 	C 	0.703	0.1194	0.496	0.479
Mof_O 	O 	0.6587	0.1242	0.609	-0.212
Mof_C 	C 	0.7079	0.9881	0.399	-0.032
Mof_H 	H 	0.6942	0.9616	0.5072	0.048
Mof_C 	C 	0.6981	0.035	0.503	-0.027
Mof_H 	H 	0.6781	0.041	0.6809	0.055
Mof_C 	C 	0.7492	0.0664	0.071	0.073
Mof_H 	H 	0.763	0.093	0.964	0.011
Mof_C 	C 	0.758	0.0189	0.975	-0.105
Mof_H 	H 	0.7781	0.0132	0.7978	0.072
Mof_Zn	Zn	0.21952	0.28603	0.3651	1.21
Mof_O 	O 	0.2851	0.2569	0.485	-0.847
Mof_H 	H 	0.3063	0.2457	0.3712	0.349
Mof_N 	N 	0.2513	0.3543	0.305	-0.294
Mof_C 	C 	0.2297	0.3874	0.483	0.079
Mof_H 	H 	0.2011	0.3811	0.5979	-0.022
Mof_N 	N 	0.2524	0.4318	0.488	-0.15
Mof_C 	C 	0.2869	0.3757	0.196	0.146
Mof_O 	O 	0.2272	0.655	0.928	-0.54
Mof_C 	C 	0.3202	0.3535	0.992	-0.198
Mof_H 	H 	0.3161	0.3209	0.9317	0.081
Mof_O 	O 	0.1878	0.6302	0.285	-0.246
Mof_C 	C 	0.3594	0.38	0.878	0.101
Mof_C 	C 	0.3917	0.356	0.675	-0.123
Mof_H 	H 	0.3856	0.3233	0.6246	0.076
Mof_C 	C 	0.4324	0.3782	0.543	0.005
Mof_H 	H 	0.454	0.3623	0.4045	0.021
Mof_C 	C 	0.4379	0.4266	0.636	-0.054
Mof_H 	H 	0.4648	0.4439	0.5584	0.042
Mof_C 	C 	0.4057	0.4505	0.838	-0.058
Mof_H 	H 	0.4117	0.4832	0.8876	0.046
Mof_C 	C 	0.365	0.4282	0.97	0.001
Mof_C 	C 	0.3321	0.4504	0.173	-0.088
Mof_H 	H 	0.3364	0.4831	0.2326	0.058
Mof_C 	C 	0.2927	0.4241	0.288	0.024
Mof_C 	C 	0.2378	0.4799	0.635	0.165
Mof_C 	C 	0.2192	0.5726	0.833	-0.173
Mof_C 	C 	0.1902	0.4965	0.64	-0.257
Mof_H 	H 	0.165	0.4757	0.5762	0.122
Mof_C 	C 	0.1792	0.544	0.74	0.175
Mof_H 	H 	0.1472	0.5558	0.745	-0.019
Mof_C 	C 	0.2686	0.5595	0.836	0.118
Mof_H 	H 	0.294	0.5803	0.8995	-0.012
Mof_C 	C 	0.2751	0.5114	0.732	-0.209
Mof_H 	H 	0.307	0.4993	0.7274	0.102
Mof_C 	C 	0.203	0.6194	0.996	0.471
Mof_O 	O 	0.1587	0.6242	0.109	-0.206
Mof_C 	C 	0.2079	0.4881	0.899	0.041
Mof_H 	H 	0.1942	0.4616	0.0072	0.024
Mof_C 	C 	0.1981	0.535	0.003	-0.092
Mof_H 	H 	0.1781	0.541	0.1809	0.078
Mof_C 	C 	0.2492	0.5664	0.571	-0.024
Mof_H 	H 	0.263	0.593	0.464	0.045
Mof_C 	C 	0.258	0.5189	0.475	0.002
Mof_H 	H 	0.2781	0.5132	0.2978	0.034
Mof_Zn	Zn	0.21397	0.71952	0.1349	1.211
Mof_O 	O 	0.2431	0.7851	0.015	-0.845
Mof_H 	H 	0.2543	0.8063	0.1288	0.349
Mof_N 	N 	0.1457	0.7513	0.195	-0.296
Mof_C 	C 	0.1126	0.7297	0.017	0.09
Mof_H 	H 	0.1189	0.7011	0.9021	-0.029
Mof_N 	N 	0.0682	0.7524	0.012	-0.147
Mof_C 	C 	0.1243	0.7869	0.304	0.15
Mof_O 	O 	0.845	0.7272	0.572	-0.54
Mof_C 	C 	0.1465	0.8202	0.508	-0.204
Mof_H 	H 	0.1791	0.8161	0.5683	0.081
Mof_O 	O 	0.8698	0.6878	0.215	-0.248
Mof_C 	C 	0.12	0.8594	0.622	0.104
Mof_C 	C 	0.144	0.8917	0.825	-0.13
Mof_H 	H 	0.1767	0.8856	0.8754	0.078
Mof_C 	C 	0.1218	0.9324	0.957	0.009
Mof_H 	H 	0.1377	0.954	0.0955	0.02
Mof_C 	C 	0.0734	0.9379	0.864	-0.058
Mof_H 	H 	0.0561	0.9648	0.9416	0.043
Mof_C 	C 	0.0495	0.9057	0.662	-0.055
Mof_H 	H 	0.0168	0.9117	0.6124	0.046
Mof_C 	C 	0.0718	0.865	0.53	-0.002
Mof_C 	C 	0.0496	0.8321	0.327	-0.084
Mof_H 	H 	0.0169	0.8364	0.2674	0.056
Mof_C 	C 	0.0759	0.7927	0.212	0.021
Mof_C 	C 	0.0201	0.7378	0.865	0.155
Mof_C 	C 	0.9274	0.7192	0.667	-0.169
Mof_C 	C 	0.0035	0.6902	0.86	-0.17
Mof_H 	H 	0.0243	0.665	0.9238	0.09
Mof_C 	C 	0.956	0.6792	0.76	0.098
Mof_H 	H 	0.9442	0.6472	0.755	0.008
Mof_C 	C 	0.9405	0.7686	0.664	0.012
Mof_H 	H 	0.9197	0.794	0.6005	0.027
Mof_C 	C 	0.9886	0.7751	0.768	-0.096
Mof_H 	H 	0.0007	0.807	0.7726	0.063
Mof_C 	C 	0.8806	0.703	0.504	0.479
Mof_O 	O 	0.8758	0.6587	0.391	-0.212
Mof_C 	C 	0.0119	0.7079	0.601	-0.032
Mof_H 	H 	0.0384	0.6942	0.4928	0.048
Mof_C 	C 	0.965	0.6981	0.497	-0.027
Mof_H 	H 	0.959	0.6781	0.3191	0.055
Mof_C 	C 	0.9336	0.7492	0.929	0.073
Mof_H 	H 	0.907	0.763	0.036	0.011
Mof_C 	C 	0.9811	0.758	0.025	-0.105
Mof_H 	H 	0.9868	0.7781	0.2022	0.072
Mof_Zn	Zn	0.71397	0.21952	0.6349	1.21
Mof_O 	O 	0.7431	0.2851	0.515	-0.847
Mof_H 	H 	0.7543	0.3063	0.6288	0.349
Mof_N 	N 	0.6457	0.2513	0.695	-0.294
Mof_C 	C 	0.6126	0.2297	0.517	0.079
Mof_H 	H 	0.6189	0.2011	0.4021	-0.022
Mof_N 	N 	0.5682	0.2524	0.512	-0.15
Mof_C 	C 	0.6243	0.2869	0.804	0.146
Mof_O 	O 	0.345	0.2272	0.072	-0.54
Mof_C 	C 	0.6465	0.3202	0.008	-0.198
Mof_H 	H 	0.6791	0.3161	0.0683	0.081
Mof_O 	O 	0.3698	0.1878	0.715	-0.246
Mof_C 	C 	0.62	0.3594	0.122	0.101
Mof_C 	C 	0.644	0.3917	0.325	-0.123
Mof_H 	H 	0.6767	0.3856	0.3754	0.076
Mof_C 	C 	0.6218	0.4324	0.457	0.005
Mof_H 	H 	0.6377	0.454	0.5955	0.021
Mof_C 	C 	0.5734	0.4379	0.364	-0.054
Mof_H 	H 	0.5561	0.4648	0.4416	0.042
Mof_C 	C 	0.5495	0.4057	0.162	-0.058
Mof_H 	H 	0.5168	0.4117	0.1124	0.046
Mof_C 	C 	0.5718	0.365	0.03	0.001
Mof_C 	C 	0.5496	0.3321	0.827	-0.088
Mof_H 	H 	0.5169	0.3364	0.7674	0.058
Mof_C 	C 	0.5759	0.2927	0.712	0.024
Mof_C 	C 	0.5201	0.2378	0.365	0.165
Mof_C 	C 	0.4274	0.2192	0.167	-0.173
Mof_C 	C 	0.5035	0.1902	0.36	-0.257
Mof_H 	H 	0.5243	0.165	0.4238	0.122
Mof_C 	C 	0.456	0.1792	0.26	0.175
Mof_H 	H 	0.4442	0.1472	0.255	-0.019
Mof_C 	C 	0.4405	0.2686	0.164	0.118
Mof_H 	H 	0.4197	0.294	0.1005	-0.012
Mof_C 	C 	0.4886	0.2751	0.268	-0.209
Mof_H 	H 	0.5007	0.307	0.2726	0.102
Mof_C 	C 	0.3806	0.203	0.004	0.471
Mof_O 	O 	0.3758	0.1587	0.891	-0.206
Mof_C 	C 	0.5119	0.2079	0.101	0.041
Mof_H 	H 	0.5384	0.1942	0.9928	0.024
Mof_C 	C 	0.465	0.1981	0.997	-0.092
Mof_H 	H 	0.459	0.1781	0.8191	0.078
Mof_C 	C 	0.4336	0.2492	0.429	-0.024
Mof_H 	H 	0.407	0.263	0.536	0.045
Mof_C 	C 	0.4811	0.258	0.525	0.002
Mof_H 	H 	0.4868	0.2781	0.7022	0.034
Mof_Zn	Zn	0.78603	0.28048	0.1349	1.211
Mof_O 	O 	0.7569	0.2149	0.015	-0.845
Mof_H 	H 	0.7457	0.1937	0.1288	0.349
Mof_N 	N 	0.8543	0.2487	0.195	-0.296
Mof_C 	C 	0.8874	0.2703	0.017	0.09
Mof_H 	H 	0.8811	0.2989	0.9021	-0.029
Mof_N 	N 	0.9318	0.2476	0.012	-0.147
Mof_C 	C 	0.8757	0.2131	0.304	0.15
Mof_O 	O 	0.155	0.2728	0.572	-0.54
Mof_C 	C 	0.8535	0.1798	0.508	-0.204
Mof_H 	H 	0.8209	0.1839	0.5683	0.081
Mof_O 	O 	0.1302	0.3122	0.215	-0.248
Mof_C 	C 	0.88	0.1406	0.622	0.104
Mof_C 	C 	0.856	0.1083	0.825	-0.13
Mof_H 	H 	0.8233	0.1144	0.8754	0.078
Mof_C 	C 	0.8782	0.0676	0.957	0.009
Mof_H 	H 	0.8623	0.046	0.0955	0.02
Mof_C 	C 	0.9266	0.0621	0.864	-0.058
Mof_H 	H 	0.9439	0.0352	0.9416	0.043
Mof_C 	C 	0.9505	0.0943	0.662	-0.055
Mof_H 	H 	0.9832	0.0883	0.6124	0.046
Mof_C 	C 	0.9282	0.135	0.53	-0.002
Mof_C 	C 	0.9504	0.1679	0.327	-0.084
Mof_H 	H 	0.9831	0.1636	0.2674	0.056
Mof_C 	C 	0.9241	0.2073	0.212	0.021
Mof_C 	C 	0.9799	0.2622	0.865	0.155
Mof_C 	C 	0.0726	0.2808	0.667	-0.169
Mof_C 	C 	0.9965	0.3098	0.86	-0.17
Mof_H 	H 	0.9757	0.335	0.9238	0.09
Mof_C 	C 	0.044	0.3208	0.76	0.098
Mof_H 	H 	0.0558	0.3528	0.755	0.008
Mof_C 	C 	0.0595	0.2314	0.664	0.012
Mof_H 	H 	0.0803	0.206	0.6005	0.027
Mof_C 	C 	0.0114	0.2249	0.768	-0.096
Mof_H 	H 	0.9993	0.193	0.7726	0.063
Mof_C 	C 	0.1194	0.297	0.504	0.479
Mof_O 	O 	0.1242	0.3413	0.391	-0.212
Mof_C 	C 	0.9881	0.2921	0.601	-0.032
Mof_H 	H 	0.9616	0.3058	0.4928	0.048
Mof_C 	C 	0.035	0.3019	0.497	-0.027
Mof_H 	H 	0.041	0.3219	0.3191	0.055
Mof_C 	C 	0.0664	0.2508	0.929	0.073
Mof_H 	H 	0.093	0.237	0.036	0.011
Mof_C 	C 	0.0189	0.242	0.025	-0.105
Mof_H 	H 	0.0132	0.2219	0.2022	0.072
Mof_Zn	Zn	0.28603	0.78048	0.6349	1.21
Mof_O 	O 	0.2569	0.7149	0.515	-0.847
Mof_H 	H 	0.2457	0.6937	0.6288	0.349
Mof_N 	N 	0.3543	0.7487	0.695	-0.294
Mof_C 	C 	0.3874	0.7703	0.517	0.079
Mof_H 	H 	0.3811	0.7989	0.4021	-0.022
Mof_N 	N 	0.4318	0.7476	0.512	-0.15
Mof_C 	C 	0.3757	0.7131	0.804	0.146
Mof_O 	O 	0.655	0.7728	0.072	-0.54
Mof_C 	C 	0.3535	0.6798	0.008	-0.198
Mof_H 	H 	0.3209	0.6839	0.0683	0.081
Mof_O 	O 	0.6302	0.8122	0.715	-0.246
Mof_C 	C 	0.38	0.6406	0.122	0.101
Mof_C 	C 	0.356	0.6083	0.325	-0.123
Mof_H 	H 	0.3233	0.6144	0.3754	0.076
Mof_C 	C 	0.3782	0.5676	0.457	0.005
Mof_H 	H 	0.3623	0.546	0.5955	0.021
Mof_C 	C 	0.4266	0.5621	0.364	-0.054
Mof_H 	H 	0.4439	0.5352	0.4416	0.042
Mof_C 	C 	0.4505	0.5943	0.162	-0.058
Mof_H 	H 	0.4832	0.5883	0.1124	0.046
Mof_C 	C 	0.4282	0.635	0.03	0.001
Mof_C 	C 	0.4504	0.6679	0.827	-0.088
Mof_H 	H 	0.4831	0.6636	0.7674	0.058
Mof_C 	C 	0.4241	0.7073	0.712	0.024
Mof_C 	C 	0.4799	0.7622	0.365	0.165
Mof_C 	C 	0.5726	0.7808	0.167	-0.173
Mof_C 	C 	0.4965	0.8098	0.36	-0.257
Mof_H 	H 	0.4757	0.835	0.4238	0.122
Mof_C 	C 	0.544	0.8208	0.26	0.175
Mof_H 	H 	0.5558	0.8528	0.255	-0.019
Mof_C 	C 	0.5595	0.7314	0.164	0.118
Mof_H 	H 	0.5803	0.706	0.1005	-0.012
Mof_C 	C 	0.5114	0.7249	0.268	-0.209
Mof_H 	H 	0.4993	0.693	0.2726	0.102
Mof_C 	C 	0.6194	0.797	0.004	0.471
Mof_O 	O 	0.6242	0.8413	0.891	-0.206
Mof_C 	C 	0.4881	0.7921	0.101	0.041
Mof_H 	H 	0.4616	0.8058	0.9928	0.024
Mof_C 	C 	0.535	0.8019	0.997	-0.092
Mof_H 	H 	0.541	0.8219	0.8191	0.078
Mof_C 	C 	0.5664	0.7508	0.429	-0.024
Mof_H 	H 	0.593	0.737	0.536	0.045
Mof_C 	C 	0.5189	0.742	0.525	0.002
Mof_H 	H 	0.5132	0.7219	0.7022	0.034
_end
