data_functionalizedCrystal
_audit_creation_method	'EQeq! by Chris Wilmer'
_symmetry_space_group_name_H-M	'P1'
_symmetry_Int_Tables_number	1
_symmetry_cell_setting	triclinic
loop_
_symmetry_equiv_pos_as_xyz
  x,y,z
_cell_length_a	8.7977
_cell_length_b	20.7323
_cell_length_c	34.3652
_cell_angle_alpha	90
_cell_angle_beta	90
_cell_angle_gamma	90
loop_
_atom_site_label
_atom_site_type_symbol
_atom_site_fract_x
_atom_site_fract_y
_atom_site_fract_z
_atom_site_charge
Mof_O 	O 	0.2417	0.33272	0.67941	-0.544
Mof_C 	C 	0.1022	0.3198	0.68245	0.547
Mof_O 	O 	0.0062	0.33468	0.65749	-0.589
Mof_C 	C 	0.0503	0.2843	0.7174	-0.156
Mof_C 	C 	0.1524	0.2626	0.74495	0.009
Mof_C 	C 	0.1033	0.2287	0.77735	0.008
Mof_O 	O 	0.2447	0.4581	0.63527	-0.567
Mof_C 	C 	0.2592	0.5922	0.6254	0.01
Mof_H 	H 	0.2577	0.2711	0.7416	0.043
Mof_H 	H 	0.1748	0.214	0.796	0.032
Mof_H 	H 	0.353	0.5691	0.6264	0.038
Mof_O 	O 	0.2417	0.83272	0.17941	-0.543
Mof_C 	C 	0.1022	0.8198	0.18245	0.544
Mof_O 	O 	0.0062	0.83468	0.15749	-0.586
Mof_C 	C 	0.0503	0.7843	0.2174	-0.147
Mof_C 	C 	0.1524	0.7626	0.24495	0.002
Mof_C 	C 	0.1033	0.7287	0.27735	0.018
Mof_O 	O 	0.2447	0.9581	0.13527	-0.567
Mof_C 	C 	0.2592	0.0922	0.1254	0.012
Mof_H 	H 	0.2577	0.7711	0.2416	0.046
Mof_H 	H 	0.1748	0.714	0.296	0.028
Mof_H 	H 	0.353	0.0691	0.1264	0.036
Mof_O 	O 	0.7417	0.33272	0.17941	-0.545
Mof_C 	C 	0.6022	0.3198	0.18245	0.545
Mof_O 	O 	0.5062	0.33468	0.15749	-0.59
Mof_C 	C 	0.5503	0.2843	0.2174	-0.153
Mof_C 	C 	0.6524	0.2626	0.24495	0.005
Mof_C 	C 	0.6033	0.2287	0.27735	0.013
Mof_O 	O 	0.7447	0.4581	0.13527	-0.568
Mof_C 	C 	0.7592	0.5922	0.1254	0.008
Mof_H 	H 	0.7577	0.2711	0.2416	0.043
Mof_H 	H 	0.6748	0.214	0.296	0.03
Mof_H 	H 	0.853	0.5691	0.1264	0.036
Mof_O 	O 	0.7417	0.83272	0.67941	-0.545
Mof_C 	C 	0.6022	0.8198	0.68245	0.545
Mof_O 	O 	0.5062	0.83468	0.65749	-0.59
Mof_C 	C 	0.5503	0.7843	0.7174	-0.153
Mof_C 	C 	0.6524	0.7626	0.74495	0.005
Mof_C 	C 	0.6033	0.7287	0.77735	0.013
Mof_O 	O 	0.7447	0.9581	0.63527	-0.567
Mof_C 	C 	0.7592	0.0922	0.6254	0.008
Mof_H 	H 	0.7577	0.7711	0.7416	0.043
Mof_H 	H 	0.6748	0.714	0.796	0.029
Mof_H 	H 	0.853	0.0691	0.6264	0.037
Mof_O 	O 	0.5083	0.41728	0.67941	-0.545
Mof_C 	C 	0.6478	0.4302	0.68245	0.545
Mof_O 	O 	0.7438	0.41532	0.65749	-0.59
Mof_C 	C 	0.6997	0.4657	0.7174	-0.153
Mof_C 	C 	0.5976	0.4874	0.74495	0.004
Mof_C 	C 	0.6467	0.5213	0.77735	0.013
Mof_O 	O 	0.5053	0.2919	0.63527	-0.568
Mof_C 	C 	0.4908	0.1578	0.6254	0.009
Mof_H 	H 	0.4923	0.4789	0.7416	0.043
Mof_H 	H 	0.5752	0.536	0.796	0.029
Mof_H 	H 	0.397	0.1809	0.6264	0.037
Mof_O 	O 	0.5083	0.91728	0.17941	-0.544
Mof_C 	C 	0.6478	0.9302	0.18245	0.543
Mof_O 	O 	0.7438	0.91532	0.15749	-0.589
Mof_C 	C 	0.6997	0.9657	0.2174	-0.148
Mof_C 	C 	0.5976	0.9874	0.24495	-0.001
Mof_C 	C 	0.6467	0.0213	0.27735	0.018
Mof_O 	O 	0.5053	0.7919	0.13527	-0.567
Mof_C 	C 	0.4908	0.6578	0.1254	0.008
Mof_H 	H 	0.4923	0.9789	0.2416	0.045
Mof_H 	H 	0.5752	0.036	0.296	0.028
Mof_H 	H 	0.397	0.6809	0.1264	0.037
Mof_O 	O 	0.0083	0.41728	0.17941	-0.544
Mof_C 	C 	0.1478	0.4302	0.18245	0.545
Mof_O 	O 	0.2438	0.41532	0.15749	-0.59
Mof_C 	C 	0.1997	0.4657	0.2174	-0.153
Mof_C 	C 	0.0976	0.4874	0.24495	0.006
Mof_C 	C 	0.1467	0.5213	0.27735	0.012
Mof_O 	O 	0.0053	0.2919	0.13527	-0.567
Mof_C 	C 	0.9908	0.1578	0.1254	0.007
Mof_H 	H 	0.9923	0.4789	0.2416	0.043
Mof_H 	H 	0.0752	0.536	0.296	0.03
Mof_H 	H 	0.897	0.1809	0.1264	0.037
Mof_O 	O 	0.0083	0.91728	0.67941	-0.543
Mof_C 	C 	0.1478	0.9302	0.68245	0.547
Mof_O 	O 	0.2438	0.91532	0.65749	-0.59
Mof_C 	C 	0.1997	0.9657	0.7174	-0.158
Mof_C 	C 	0.0976	0.9874	0.74495	0.016
Mof_C 	C 	0.1467	0.0213	0.77735	0.004
Mof_O 	O 	0.0053	0.7919	0.63527	-0.566
Mof_C 	C 	0.9908	0.6578	0.6254	0.006
Mof_H 	H 	0.9923	0.9789	0.7416	0.038
Mof_H 	H 	0.0752	0.036	0.796	0.031
Mof_H 	H 	0.897	0.6809	0.6264	0.037
Mof_O 	O 	0.5083	0.33272	0.07059	-0.545
Mof_C 	C 	0.6478	0.3198	0.06755	0.544
Mof_O 	O 	0.7438	0.33468	0.09251	-0.59
Mof_C 	C 	0.6997	0.2843	0.0326	-0.15
Mof_C 	C 	0.5976	0.2626	0.00505	0.002
Mof_C 	C 	0.6467	0.2287	0.97265	0.015
Mof_O 	O 	0.5053	0.4581	0.11473	-0.568
Mof_C 	C 	0.4908	0.5922	0.1246	0.008
Mof_H 	H 	0.4923	0.2711	0.0084	0.044
Mof_H 	H 	0.5752	0.214	0.954	0.029
Mof_H 	H 	0.397	0.5691	0.1236	0.037
Mof_O 	O 	0.5083	0.83272	0.57059	-0.545
Mof_C 	C 	0.6478	0.8198	0.56755	0.545
Mof_O 	O 	0.7438	0.83468	0.59251	-0.59
Mof_C 	C 	0.6997	0.7843	0.5326	-0.154
Mof_C 	C 	0.5976	0.7626	0.50505	0.005
Mof_C 	C 	0.6467	0.7287	0.47265	0.012
Mof_O 	O 	0.5053	0.9581	0.61473	-0.567
Mof_C 	C 	0.4908	0.0922	0.6246	0.008
Mof_H 	H 	0.4923	0.7711	0.5084	0.043
Mof_H 	H 	0.5752	0.714	0.454	0.03
Mof_H 	H 	0.397	0.0691	0.6236	0.037
Mof_O 	O 	0.0083	0.33272	0.57059	-0.545
Mof_C 	C 	0.1478	0.3198	0.56755	0.544
Mof_O 	O 	0.2438	0.33468	0.59251	-0.59
Mof_C 	C 	0.1997	0.2843	0.5326	-0.152
Mof_C 	C 	0.0976	0.2626	0.50505	0.002
Mof_C 	C 	0.1467	0.2287	0.47265	0.014
Mof_O 	O 	0.0053	0.4581	0.61473	-0.567
Mof_C 	C 	0.9908	0.5922	0.6246	0.008
Mof_H 	H 	0.9923	0.2711	0.5084	0.045
Mof_H 	H 	0.0752	0.214	0.454	0.028
Mof_H 	H 	0.897	0.5691	0.6236	0.037
Mof_O 	O 	0.0083	0.83272	0.07059	-0.543
Mof_C 	C 	0.1478	0.8198	0.06755	0.546
Mof_O 	O 	0.2438	0.83468	0.09251	-0.59
Mof_C 	C 	0.1997	0.7843	0.0326	-0.156
Mof_C 	C 	0.0976	0.7626	0.00505	0.011
Mof_C 	C 	0.1467	0.7287	0.97265	0.008
Mof_O 	O 	0.0053	0.9581	0.11473	-0.565
Mof_C 	C 	0.9908	0.0922	0.1246	0.011
Mof_H 	H 	0.9923	0.7711	0.0084	0.039
Mof_H 	H 	0.0752	0.714	0.954	0.031
Mof_H 	H 	0.897	0.0691	0.1236	0.036
Mof_O 	O 	0.2417	0.41728	0.07059	-0.545
Mof_C 	C 	0.1022	0.4302	0.06755	0.545
Mof_O 	O 	0.0062	0.41532	0.09251	-0.589
Mof_C 	C 	0.0503	0.4657	0.0326	-0.152
Mof_C 	C 	0.1524	0.4874	0.00505	0.005
Mof_C 	C 	0.1033	0.5213	0.97265	0.011
Mof_O 	O 	0.2447	0.2919	0.11473	-0.567
Mof_C 	C 	0.2592	0.1578	0.1246	0.007
Mof_H 	H 	0.2577	0.4789	0.0084	0.043
Mof_H 	H 	0.1748	0.536	0.954	0.03
Mof_H 	H 	0.353	0.1809	0.1236	0.037
Mof_O 	O 	0.2417	0.91728	0.57059	-0.544
Mof_C 	C 	0.1022	0.9302	0.56755	0.544
Mof_O 	O 	0.0062	0.91532	0.59251	-0.588
Mof_C 	C 	0.0503	0.9657	0.5326	-0.15
Mof_C 	C 	0.1524	0.9874	0.50505	0.008
Mof_C 	C 	0.1033	0.0213	0.47265	0.006
Mof_O 	O 	0.2447	0.7919	0.61473	-0.567
Mof_C 	C 	0.2592	0.6578	0.6246	0.007
Mof_H 	H 	0.2577	0.9789	0.5084	0.042
Mof_H 	H 	0.1748	0.036	0.454	0.031
Mof_H 	H 	0.353	0.6809	0.6236	0.037
Mof_O 	O 	0.7417	0.41728	0.57059	-0.545
Mof_C 	C 	0.6022	0.4302	0.56755	0.545
Mof_O 	O 	0.5062	0.41532	0.59251	-0.59
Mof_C 	C 	0.5503	0.4657	0.5326	-0.153
Mof_C 	C 	0.6524	0.4874	0.50505	0.005
Mof_C 	C 	0.6033	0.5213	0.47265	0.013
Mof_O 	O 	0.7447	0.2919	0.61473	-0.568
Mof_C 	C 	0.7592	0.1578	0.6246	0.009
Mof_H 	H 	0.7577	0.4789	0.5084	0.043
Mof_H 	H 	0.6748	0.536	0.454	0.029
Mof_H 	H 	0.853	0.1809	0.6236	0.037
Mof_O 	O 	0.7417	0.91728	0.07059	-0.545
Mof_C 	C 	0.6022	0.9302	0.06755	0.545
Mof_O 	O 	0.5062	0.91532	0.09251	-0.59
Mof_C 	C 	0.5503	0.9657	0.0326	-0.153
Mof_C 	C 	0.6524	0.9874	0.00505	0.004
Mof_C 	C 	0.6033	0.0213	0.97265	0.014
Mof_O 	O 	0.7447	0.7919	0.11473	-0.567
Mof_C 	C 	0.7592	0.6578	0.1246	0.008
Mof_H 	H 	0.7577	0.9789	0.0084	0.043
Mof_H 	H 	0.6748	0.036	0.954	0.029
Mof_H 	H 	0.853	0.6809	0.1236	0.036
Mof_O 	O 	0.7583	0.66728	0.32059	-0.545
Mof_C 	C 	0.8978	0.6802	0.31755	0.546
Mof_O 	O 	0.9938	0.66532	0.34251	-0.59
Mof_C 	C 	0.9497	0.7157	0.2826	-0.157
Mof_C 	C 	0.8476	0.7374	0.25505	0.008
Mof_C 	C 	0.8967	0.7713	0.22265	0.007
Mof_O 	O 	0.7553	0.5419	0.36473	-0.568
Mof_C 	C 	0.7408	0.4078	0.3746	0.009
Mof_H 	H 	0.7423	0.7289	0.2584	0.042
Mof_H 	H 	0.8252	0.786	0.204	0.031
Mof_H 	H 	0.647	0.4309	0.3736	0.037
Mof_O 	O 	0.7583	0.16728	0.82059	-0.544
Mof_C 	C 	0.8978	0.1802	0.81755	0.543
Mof_O 	O 	0.9938	0.16532	0.84251	-0.587
Mof_C 	C 	0.9497	0.2157	0.7826	-0.148
Mof_C 	C 	0.8476	0.2374	0.75505	0.001
Mof_C 	C 	0.8967	0.2713	0.72265	0.017
Mof_O 	O 	0.7553	0.0419	0.86473	-0.568
Mof_C 	C 	0.7408	0.9078	0.8746	0.011
Mof_H 	H 	0.7423	0.2289	0.7584	0.045
Mof_H 	H 	0.8252	0.286	0.704	0.028
Mof_H 	H 	0.647	0.9309	0.8736	0.036
Mof_O 	O 	0.2583	0.66728	0.82059	-0.545
Mof_C 	C 	0.3978	0.6802	0.81755	0.545
Mof_O 	O 	0.4938	0.66532	0.84251	-0.59
Mof_C 	C 	0.4497	0.7157	0.7826	-0.153
Mof_C 	C 	0.3476	0.7374	0.75505	0.005
Mof_C 	C 	0.3967	0.7713	0.72265	0.013
Mof_O 	O 	0.2553	0.5419	0.86473	-0.568
Mof_C 	C 	0.2408	0.4078	0.8746	0.008
Mof_H 	H 	0.2423	0.7289	0.7584	0.043
Mof_H 	H 	0.3252	0.786	0.704	0.03
Mof_H 	H 	0.147	0.4309	0.8736	0.036
Mof_O 	O 	0.2583	0.16728	0.32059	-0.545
Mof_C 	C 	0.3978	0.1802	0.31755	0.545
Mof_O 	O 	0.4938	0.16532	0.34251	-0.59
Mof_C 	C 	0.4497	0.2157	0.2826	-0.153
Mof_C 	C 	0.3476	0.2374	0.25505	0.005
Mof_C 	C 	0.3967	0.2713	0.22265	0.013
Mof_O 	O 	0.2553	0.0419	0.36473	-0.567
Mof_C 	C 	0.2408	0.9078	0.3746	0.008
Mof_H 	H 	0.2423	0.2289	0.2584	0.043
Mof_H 	H 	0.3252	0.286	0.204	0.029
Mof_H 	H 	0.147	0.9309	0.3736	0.037
Mof_O 	O 	0.4917	0.58272	0.32059	-0.545
Mof_C 	C 	0.3522	0.5698	0.31755	0.545
Mof_O 	O 	0.2562	0.58468	0.34251	-0.59
Mof_C 	C 	0.3003	0.5343	0.2826	-0.153
Mof_C 	C 	0.4024	0.5126	0.25505	0.004
Mof_C 	C 	0.3533	0.4787	0.22265	0.013
Mof_O 	O 	0.4947	0.7081	0.36473	-0.568
Mof_C 	C 	0.5092	0.8422	0.3746	0.009
Mof_H 	H 	0.5077	0.5211	0.2584	0.043
Mof_H 	H 	0.4248	0.464	0.204	0.029
Mof_H 	H 	0.603	0.8191	0.3736	0.037
Mof_O 	O 	0.4917	0.08272	0.82059	-0.544
Mof_C 	C 	0.3522	0.0698	0.81755	0.543
Mof_O 	O 	0.2562	0.08468	0.84251	-0.589
Mof_C 	C 	0.3003	0.0343	0.7826	-0.148
Mof_C 	C 	0.4024	0.0126	0.75505	-0.001
Mof_C 	C 	0.3533	0.9787	0.72265	0.018
Mof_O 	O 	0.4947	0.2081	0.86473	-0.567
Mof_C 	C 	0.5092	0.3422	0.8746	0.008
Mof_H 	H 	0.5077	0.0211	0.7584	0.045
Mof_H 	H 	0.4248	0.964	0.704	0.028
Mof_H 	H 	0.603	0.3191	0.8736	0.037
Mof_O 	O 	0.9917	0.58272	0.82059	-0.544
Mof_C 	C 	0.8522	0.5698	0.81755	0.545
Mof_O 	O 	0.7562	0.58468	0.84251	-0.59
Mof_C 	C 	0.8003	0.5343	0.7826	-0.153
Mof_C 	C 	0.9024	0.5126	0.75505	0.006
Mof_C 	C 	0.8533	0.4787	0.72265	0.012
Mof_O 	O 	0.9947	0.7081	0.86473	-0.567
Mof_C 	C 	0.0092	0.8422	0.8746	0.007
Mof_H 	H 	0.0077	0.5211	0.7584	0.043
Mof_H 	H 	0.9248	0.464	0.704	0.03
Mof_H 	H 	0.103	0.8191	0.8736	0.037
Mof_O 	O 	0.9917	0.08272	0.32059	-0.543
Mof_C 	C 	0.8522	0.0698	0.31755	0.547
Mof_O 	O 	0.7562	0.08468	0.34251	-0.59
Mof_C 	C 	0.8003	0.0343	0.2826	-0.158
Mof_C 	C 	0.9024	0.0126	0.25505	0.016
Mof_C 	C 	0.8533	0.9787	0.22265	0.004
Mof_O 	O 	0.9947	0.2081	0.36473	-0.566
Mof_C 	C 	0.0092	0.3422	0.3746	0.006
Mof_H 	H 	0.0077	0.0211	0.2584	0.038
Mof_H 	H 	0.9248	0.964	0.204	0.031
Mof_H 	H 	0.103	0.3191	0.3736	0.037
Mof_O 	O 	0.4917	0.66728	0.92941	-0.545
Mof_C 	C 	0.3522	0.6802	0.93245	0.544
Mof_O 	O 	0.2562	0.66532	0.90749	-0.59
Mof_C 	C 	0.3003	0.7157	0.9674	-0.15
Mof_C 	C 	0.4024	0.7374	0.99495	0.002
Mof_C 	C 	0.3533	0.7713	0.02735	0.015
Mof_O 	O 	0.4947	0.5419	0.88527	-0.568
Mof_C 	C 	0.5092	0.4078	0.8754	0.008
Mof_H 	H 	0.5077	0.7289	0.9916	0.044
Mof_H 	H 	0.4248	0.786	0.046	0.029
Mof_H 	H 	0.603	0.4309	0.8764	0.037
Mof_O 	O 	0.4917	0.16728	0.42941	-0.545
Mof_C 	C 	0.3522	0.1802	0.43245	0.545
Mof_O 	O 	0.2562	0.16532	0.40749	-0.59
Mof_C 	C 	0.3003	0.2157	0.4674	-0.154
Mof_C 	C 	0.4024	0.2374	0.49495	0.005
Mof_C 	C 	0.3533	0.2713	0.52735	0.012
Mof_O 	O 	0.4947	0.0419	0.38527	-0.567
Mof_C 	C 	0.5092	0.9078	0.3754	0.008
Mof_H 	H 	0.5077	0.2289	0.4916	0.043
Mof_H 	H 	0.4248	0.286	0.546	0.03
Mof_H 	H 	0.603	0.9309	0.3764	0.037
Mof_O 	O 	0.9917	0.66728	0.42941	-0.545
Mof_C 	C 	0.8522	0.6802	0.43245	0.544
Mof_O 	O 	0.7562	0.66532	0.40749	-0.59
Mof_C 	C 	0.8003	0.7157	0.4674	-0.152
Mof_C 	C 	0.9024	0.7374	0.49495	0.002
Mof_C 	C 	0.8533	0.7713	0.52735	0.014
Mof_O 	O 	0.9947	0.5419	0.38527	-0.567
Mof_C 	C 	0.0092	0.4078	0.3754	0.008
Mof_H 	H 	0.0077	0.7289	0.4916	0.045
Mof_H 	H 	0.9248	0.786	0.546	0.028
Mof_H 	H 	0.103	0.4309	0.3764	0.037
Mof_O 	O 	0.9917	0.16728	0.92941	-0.543
Mof_C 	C 	0.8522	0.1802	0.93245	0.546
Mof_O 	O 	0.7562	0.16532	0.90749	-0.59
Mof_C 	C 	0.8003	0.2157	0.9674	-0.156
Mof_C 	C 	0.9024	0.2374	0.99495	0.011
Mof_C 	C 	0.8533	0.2713	0.02735	0.008
Mof_O 	O 	0.9947	0.0419	0.88527	-0.565
Mof_C 	C 	0.0092	0.9078	0.8754	0.011
Mof_H 	H 	0.0077	0.2289	0.9916	0.039
Mof_H 	H 	0.9248	0.286	0.046	0.031
Mof_H 	H 	0.103	0.9309	0.8764	0.036
Mof_O 	O 	0.7583	0.58272	0.92941	-0.545
Mof_C 	C 	0.8978	0.5698	0.93245	0.545
Mof_O 	O 	0.9938	0.58468	0.90749	-0.589
Mof_C 	C 	0.9497	0.5343	0.9674	-0.152
Mof_C 	C 	0.8476	0.5126	0.99495	0.005
Mof_C 	C 	0.8967	0.4787	0.02735	0.011
Mof_O 	O 	0.7553	0.7081	0.88527	-0.567
Mof_C 	C 	0.7408	0.8422	0.8754	0.007
Mof_H 	H 	0.7423	0.5211	0.9916	0.043
Mof_H 	H 	0.8252	0.464	0.046	0.03
Mof_H 	H 	0.647	0.8191	0.8764	0.037
Mof_O 	O 	0.7583	0.08272	0.42941	-0.544
Mof_C 	C 	0.8978	0.0698	0.43245	0.544
Mof_O 	O 	0.9938	0.08468	0.40749	-0.588
Mof_C 	C 	0.9497	0.0343	0.4674	-0.15
Mof_C 	C 	0.8476	0.0126	0.49495	0.008
Mof_C 	C 	0.8967	0.9787	0.52735	0.006
Mof_O 	O 	0.7553	0.2081	0.38527	-0.567
Mof_C 	C 	0.7408	0.3422	0.3754	0.007
Mof_H 	H 	0.7423	0.0211	0.4916	0.042
Mof_H 	H 	0.8252	0.964	0.546	0.031
Mof_H 	H 	0.647	0.3191	0.3764	0.037
Mof_O 	O 	0.2583	0.58272	0.42941	-0.545
Mof_C 	C 	0.3978	0.5698	0.43245	0.545
Mof_O 	O 	0.4938	0.58468	0.40749	-0.59
Mof_C 	C 	0.4497	0.5343	0.4674	-0.153
Mof_C 	C 	0.3476	0.5126	0.49495	0.005
Mof_C 	C 	0.3967	0.4787	0.52735	0.013
Mof_O 	O 	0.2553	0.7081	0.38527	-0.568
Mof_C 	C 	0.2408	0.8422	0.3754	0.009
Mof_H 	H 	0.2423	0.5211	0.4916	0.043
Mof_H 	H 	0.3252	0.464	0.546	0.029
Mof_H 	H 	0.147	0.8191	0.3764	0.037
Mof_O 	O 	0.2583	0.08272	0.92941	-0.545
Mof_C 	C 	0.3978	0.0698	0.93245	0.545
Mof_O 	O 	0.4938	0.08468	0.90749	-0.59
Mof_C 	C 	0.4497	0.0343	0.9674	-0.153
Mof_C 	C 	0.3476	0.0126	0.99495	0.004
Mof_C 	C 	0.3967	0.9787	0.02735	0.014
Mof_O 	O 	0.2553	0.2081	0.88527	-0.567
Mof_C 	C 	0.2408	0.3422	0.8754	0.008
Mof_H 	H 	0.2423	0.0211	0.9916	0.043
Mof_H 	H 	0.3252	0.964	0.046	0.029
Mof_H 	H 	0.147	0.3191	0.8764	0.036
Mof_Sc	Sc	0.375	0.375	0.63547	1.959
Mof_Sc	Sc	0.375	0.875	0.13547	1.959
Mof_Sc	Sc	0.875	0.375	0.13547	1.957
Mof_Sc	Sc	0.875	0.875	0.63547	1.954
Mof_Sc	Sc	0.375	0.375	0.11453	1.959
Mof_Sc	Sc	0.375	0.875	0.61453	1.959
Mof_Sc	Sc	0.875	0.375	0.61453	1.959
Mof_Sc	Sc	0.875	0.875	0.11453	1.952
Mof_Sc	Sc	0.625	0.625	0.36453	1.959
Mof_Sc	Sc	0.625	0.125	0.86453	1.959
Mof_Sc	Sc	0.125	0.625	0.86453	1.957
Mof_Sc	Sc	0.125	0.125	0.36453	1.954
Mof_Sc	Sc	0.625	0.625	0.88547	1.959
Mof_Sc	Sc	0.625	0.125	0.38547	1.959
Mof_Sc	Sc	0.125	0.625	0.38547	1.959
Mof_Sc	Sc	0.125	0.125	0.88547	1.952
Mof_C 	C 	0.125	0.4865	0.625	0.539
Mof_C 	C 	0.125	0.5582	0.625	-0.148
Mof_C 	C 	0.125	0.9865	0.125	0.542
Mof_C 	C 	0.125	0.0582	0.125	-0.153
Mof_C 	C 	0.625	0.9865	0.625	0.539
Mof_C 	C 	0.625	0.0582	0.625	-0.148
Mof_C 	C 	0.625	0.2635	0.625	0.54
Mof_C 	C 	0.625	0.1918	0.625	-0.149
Mof_C 	C 	0.625	0.7635	0.125	0.539
Mof_C 	C 	0.625	0.6918	0.125	-0.149
Mof_C 	C 	0.625	0.4865	0.125	0.539
Mof_C 	C 	0.625	0.5582	0.125	-0.149
Mof_C 	C 	0.125	0.2635	0.125	0.539
Mof_C 	C 	0.125	0.1918	0.125	-0.148
Mof_C 	C 	0.125	0.7635	0.625	0.538
Mof_C 	C 	0.125	0.6918	0.625	-0.146
Mof_C 	C 	0.875	0.5135	0.375	0.539
Mof_C 	C 	0.875	0.4418	0.375	-0.148
Mof_C 	C 	0.875	0.0135	0.875	0.542
Mof_C 	C 	0.875	0.9418	0.875	-0.153
Mof_C 	C 	0.375	0.7365	0.375	0.54
Mof_C 	C 	0.375	0.8082	0.375	-0.149
Mof_C 	C 	0.375	0.2365	0.875	0.539
Mof_C 	C 	0.375	0.3082	0.875	-0.149
Mof_C 	C 	0.375	0.5135	0.875	0.539
Mof_C 	C 	0.375	0.4418	0.875	-0.149
Mof_C 	C 	0.375	0.0135	0.375	0.539
Mof_C 	C 	0.375	0.9418	0.375	-0.148
Mof_C 	C 	0.875	0.7365	0.875	0.539
Mof_C 	C 	0.875	0.8082	0.875	-0.148
Mof_C 	C 	0.875	0.2365	0.375	0.538
Mof_C 	C 	0.875	0.3082	0.375	-0.146
_end
