# CIF file generated by openbabel 3.1.0, see https://openbabel.org
data_I
_chemical_name_common 'image0'
_cell_length_a 14.7236
_cell_length_b 14.7236
_cell_length_c 8.9544
_cell_angle_alpha 90
_cell_angle_beta 90
_cell_angle_gamma 90
_space_group_name_H-M_alt 'P 1'
_space_group_name_Hall 'P 1'
loop_
    _symmetry_equiv_pos_as_xyz
    x,y,z
loop_
    _atom_site_label
    _atom_site_type_symbol
    _atom_site_fract_x
    _atom_site_fract_y
    _atom_site_fract_z
    _atom_site_occupancy
    Co1      Co       0.98829    0.13148    0.34972    1.000
    Co2      Co       0.13146    0.49883    0.16341    1.000
    P1       P        0.99981    0.35267    0.30550    1.000
    P2       P        0.98749    0.14663    0.70880    1.000
    O1       O        0.08380    0.39040    0.23400    1.000
    O2       O        0.00350    0.24780    0.75340    1.000
    O3       O        0.94620    0.13890    0.55370    1.000
    O4       O        0.99450    0.25250    0.26440    1.000
    O5       O        0.08000    0.09960    0.71580    1.000
    O6       O        0.92320    0.10900    0.82780    1.000
    O7       O        0.92110    0.40180    0.24400    1.000
    O8       O        0.99300    0.36370    0.46090    1.000
    Zn1      Zn       0.00117    0.36854    0.66341    1.000
    Zn2      Zn       0.13148    0.01171    0.84972    1.000
    Co3      Co       0.01171    0.86852    0.34972    1.000
    Co4      Co       0.86854    0.50117    0.16341    1.000
    P3       P        0.00019    0.64733    0.30550    1.000
    P4       P        0.01251    0.85337    0.70880    1.000
    O9       O        0.91620    0.60960    0.23400    1.000
    O10      O        0.99650    0.75220    0.75340    1.000
    O11      O        0.05380    0.86110    0.55370    1.000
    O12      O        0.00550    0.74750    0.26440    1.000
    O13      O        0.92000    0.90040    0.71580    1.000
    O14      O        0.07680    0.89100    0.82780    1.000
    O15      O        0.07890    0.59820    0.24400    1.000
    O16      O        0.00700    0.63630    0.46090    1.000
    Zn3      Zn       0.99883    0.63146    0.66341    1.000
    Zn4      Zn       0.86852    0.98829    0.84972    1.000
    Co5      Co       0.50117    0.13146    0.66341    1.000
    P5       P        0.64733    0.99981    0.80550    1.000
    P6       P        0.85337    0.98749    0.20880    1.000
    O17      O        0.60960    0.08380    0.73400    1.000
    O18      O        0.75220    0.00350    0.25340    1.000
    O19      O        0.86110    0.94620    0.05370    1.000
    O20      O        0.74750    0.99450    0.76440    1.000
    O21      O        0.90040    0.08000    0.21580    1.000
    O22      O        0.89100    0.92320    0.32780    1.000
    O23      O        0.59820    0.92110    0.74400    1.000
    O24      O        0.63630    0.99300    0.96090    1.000
    Zn5      Zn       0.63146    0.00117    0.16341    1.000
    Co6      Co       0.49883    0.86854    0.66341    1.000
    P7       P        0.35267    0.00019    0.80550    1.000
    P8       P        0.14663    0.01251    0.20880    1.000
    O25      O        0.39040    0.91620    0.73400    1.000
    O26      O        0.24780    0.99650    0.25340    1.000
    O27      O        0.13890    0.05380    0.05370    1.000
    O28      O        0.25250    0.00550    0.76440    1.000
    O29      O        0.09960    0.92000    0.21580    1.000
    O30      O        0.10900    0.07680    0.32780    1.000
    O31      O        0.40180    0.07890    0.74400    1.000
    O32      O        0.36370    0.00700    0.96090    1.000
    Zn6      Zn       0.36854    0.99883    0.16341    1.000
    Co7      Co       0.48829    0.36852    0.34972    1.000
    P9       P        0.49981    0.14733    0.30550    1.000
    P10      P        0.48749    0.35337    0.70880    1.000
    O33      O        0.58380    0.10960    0.23400    1.000
    O34      O        0.50350    0.25220    0.75340    1.000
    O35      O        0.44620    0.36110    0.55370    1.000
    O36      O        0.49450    0.24750    0.26440    1.000
    O37      O        0.58000    0.40040    0.71580    1.000
    O38      O        0.42320    0.39100    0.82780    1.000
    O39      O        0.42110    0.09820    0.24400    1.000
    O40      O        0.49300    0.13630    0.46090    1.000
    Zn7      Zn       0.63148    0.48829    0.84972    1.000
    Co8      Co       0.51171    0.63148    0.34972    1.000
    P11      P        0.50019    0.85267    0.30550    1.000
    P12      P        0.51251    0.64663    0.70880    1.000
    O41      O        0.41620    0.89040    0.23400    1.000
    O42      O        0.49650    0.74780    0.75340    1.000
    O43      O        0.55380    0.63890    0.55370    1.000
    O44      O        0.50550    0.75250    0.26440    1.000
    O45      O        0.42000    0.59960    0.71580    1.000
    O46      O        0.57680    0.60900    0.82780    1.000
    O47      O        0.57890    0.90180    0.24400    1.000
    O48      O        0.50700    0.86370    0.46090    1.000
    Zn8      Zn       0.36852    0.51171    0.84972    1.000
    P13      P        0.14733    0.50019    0.80550    1.000
    P14      P        0.35337    0.51251    0.20880    1.000
    O49      O        0.10960    0.41620    0.73400    1.000
    O50      O        0.25220    0.49650    0.25340    1.000
    O51      O        0.36110    0.55380    0.05370    1.000
    O52      O        0.24750    0.50550    0.76440    1.000
    O53      O        0.40040    0.42000    0.21580    1.000
    O54      O        0.39100    0.57680    0.32780    1.000
    O55      O        0.09820    0.57890    0.74400    1.000
    O56      O        0.13630    0.50700    0.96090    1.000
    P15      P        0.85267    0.49981    0.80550    1.000
    P16      P        0.64663    0.48749    0.20880    1.000
    O57      O        0.89040    0.58380    0.73400    1.000
    O58      O        0.74780    0.50350    0.25340    1.000
    O59      O        0.63890    0.44620    0.05370    1.000
    O60      O        0.75250    0.49450    0.76440    1.000
    O61      O        0.59960    0.58000    0.21580    1.000
    O62      O        0.60900    0.42320    0.32780    1.000
    O63      O        0.90180    0.42110    0.74400    1.000
    O64      O        0.86370    0.49300    0.96090    1.000
