data_functionalizedCrystal
_audit_creation_method	'EQeq! by Chris Wilmer'
_symmetry_space_group_name_H-M	'P1'
_symmetry_Int_Tables_number	1
_symmetry_cell_setting	triclinic
loop_
_symmetry_equiv_pos_as_xyz
  x,y,z
_cell_length_a	15.8085
_cell_length_b	15.8085
_cell_length_c	21.0207
_cell_angle_alpha	85.2861
_cell_angle_beta	85.2861
_cell_angle_gamma	60.5712
loop_
_atom_site_label
_atom_site_type_symbol
_atom_site_fract_x
_atom_site_fract_y
_atom_site_fract_z
_atom_site_charge
Mof_Zn	Zn	0.43533	0.95773	0.00741	1.201
Mof_Zn	Zn	0.0085	0.00218	0.68084	1.195
Mof_Zn	Zn	0.04227	0.56467	0.49259	1.201
Mof_Zn	Zn	0.99782	0.9915	0.81916	1.195
Mof_Zn	Zn	0.56467	0.04227	0.99259	1.2
Mof_Zn	Zn	0.9915	0.99782	0.31916	1.194
Mof_Zn	Zn	0.95773	0.43533	0.50741	1.2
Mof_Zn	Zn	0.00218	0.0085	0.18084	1.194
Mof_H 	H 	0.1059	0.2845	0.8137	0.171
Mof_H 	H 	0.9352	0.455	0.6789	0.175
Mof_H 	H 	0.1212	0.5296	0.8494	0.153
Mof_H 	H 	0.6038	0.7268	0.8853	-0.065
Mof_H 	H 	0.2279	0.1513	0.8689	-0.047
Mof_H 	H 	0.0449	0.7063	0.6593	-0.018
Mof_H 	H 	0.395	0.2674	0.8557	-0.057
Mof_H 	H 	0.8632	0.448	0.8691	0.154
Mof_H 	H 	0.891	0.7018	0.8057	0.194
Mof_H 	H 	0.9052	0.2876	0.8613	-0.044
Mof_H 	H 	0.0962	0.685	0.8461	-0.028
Mof_H 	H 	0.9634	0.295	0.6744	-0.038
Mof_H 	H 	0.0663	0.5513	0.6643	0.165
Mof_H 	H 	0.7807	0.8359	0.8552	-0.071
Mof_H 	H 	0.2868	0.3986	0.7951	0.182
Mof_H 	H 	0.7067	0.5949	0.8285	0.172
Mof_H 	H 	0.7155	0.8941	0.6863	0.171
Mof_H 	H 	0.545	0.0648	0.8211	0.174
Mof_H 	H 	0.4704	0.8788	0.6506	0.153
Mof_H 	H 	0.2732	0.3962	0.6147	-0.065
Mof_H 	H 	0.8487	0.7721	0.6311	-0.047
Mof_H 	H 	0.2937	0.9551	0.8407	-0.018
Mof_H 	H 	0.7326	0.605	0.6443	-0.057
Mof_H 	H 	0.552	0.1368	0.6309	0.155
Mof_H 	H 	0.2982	0.109	0.6943	0.194
Mof_H 	H 	0.7124	0.0948	0.6387	-0.043
Mof_H 	H 	0.315	0.9038	0.6539	-0.028
Mof_H 	H 	0.705	0.0366	0.8256	-0.038
Mof_H 	H 	0.4487	0.9337	0.8357	0.165
Mof_H 	H 	0.1641	0.2193	0.6448	-0.071
Mof_H 	H 	0.6014	0.7132	0.7049	0.182
Mof_H 	H 	0.4051	0.2933	0.6715	0.173
Mof_H 	H 	0.8941	0.7155	0.1863	0.171
Mof_H 	H 	0.0648	0.545	0.3211	0.175
Mof_H 	H 	0.8788	0.4704	0.1506	0.153
Mof_H 	H 	0.3962	0.2732	0.1147	-0.065
Mof_H 	H 	0.7721	0.8487	0.1311	-0.047
Mof_H 	H 	0.9551	0.2937	0.3407	-0.018
Mof_H 	H 	0.605	0.7326	0.1443	-0.057
Mof_H 	H 	0.1368	0.552	0.1309	0.154
Mof_H 	H 	0.109	0.2982	0.1943	0.194
Mof_H 	H 	0.0948	0.7124	0.1387	-0.044
Mof_H 	H 	0.9038	0.315	0.1539	-0.028
Mof_H 	H 	0.0366	0.705	0.3256	-0.038
Mof_H 	H 	0.9337	0.4487	0.3357	0.165
Mof_H 	H 	0.2193	0.1641	0.1448	-0.071
Mof_H 	H 	0.7132	0.6014	0.2049	0.182
Mof_H 	H 	0.2933	0.4051	0.1715	0.172
Mof_H 	H 	0.2845	0.1059	0.3137	0.171
Mof_H 	H 	0.455	0.9352	0.1789	0.174
Mof_H 	H 	0.5296	0.1212	0.3494	0.153
Mof_H 	H 	0.7268	0.6038	0.3853	-0.065
Mof_H 	H 	0.1513	0.2279	0.3689	-0.047
Mof_H 	H 	0.7063	0.0449	0.1593	-0.018
Mof_H 	H 	0.2674	0.395	0.3557	-0.057
Mof_H 	H 	0.448	0.8632	0.3691	0.155
Mof_H 	H 	0.7018	0.891	0.3057	0.194
Mof_H 	H 	0.2876	0.9052	0.3613	-0.043
Mof_H 	H 	0.685	0.0962	0.3461	-0.028
Mof_H 	H 	0.295	0.9634	0.1744	-0.038
Mof_H 	H 	0.5513	0.0663	0.1643	0.165
Mof_H 	H 	0.8359	0.7807	0.3552	-0.071
Mof_H 	H 	0.3986	0.2868	0.2951	0.182
Mof_H 	H 	0.5949	0.7067	0.3285	0.173
Mof_C 	C 	0.8941	0.4679	0.7716	0.364
Mof_C 	C 	0.0645	0.7197	0.7508	-0.236
Mof_C 	C 	0.1642	0.2816	0.8218	-0.352
Mof_C 	C 	0.9327	0.2789	0.7694	-0.288
Mof_C 	C 	0.9258	0.4226	0.7154	-0.343
Mof_C 	C 	0.1084	0.5654	0.8106	-0.337
Mof_C 	C 	0.6625	0.7213	0.8688	0.317
Mof_C 	C 	0.2377	0.2039	0.8569	0.276
Mof_C 	C 	0.06	0.6712	0.6983	0.185
Mof_C 	C 	0.3359	0.2717	0.848	0.287
Mof_C 	C 	0.884	0.418	0.8303	-0.348
Mof_C 	C 	0.8321	0.7065	0.8212	-0.421
Mof_C 	C 	0.9073	0.3233	0.8244	0.243
Mof_C 	C 	0.0909	0.6597	0.8091	0.191
Mof_C 	C 	0.6823	0.7923	0.8792	-0.349
Mof_C 	C 	0.9442	0.3264	0.7127	0.223
Mof_C 	C 	0.1077	0.5223	0.7568	0.348
Mof_C 	C 	0.8135	0.6325	0.8118	0.388
Mof_C 	C 	0.3176	0.198	0.8743	-0.335
Mof_C 	C 	0.0457	0.8183	0.7422	0.419
Mof_C 	C 	0.0761	0.5769	0.6995	-0.312
Mof_C 	C 	0.1889	0.3561	0.7996	0.386
Mof_C 	C 	0.3878	0.1184	0.917	0.544
Mof_C 	C 	0.7677	0.7851	0.8521	0.328
Mof_C 	C 	0.2718	0.3508	0.8111	-0.424
Mof_C 	C 	0.7237	0.6419	0.8355	-0.406
Mof_C 	C 	0.6144	0.8732	0.9231	0.574
Mof_C 	C 	0.9573	0.1767	0.7713	0.45
Mof_C 	C 	0.5321	0.1059	0.7284	0.364
Mof_C 	C 	0.2803	0.9355	0.7492	-0.236
Mof_C 	C 	0.7184	0.8358	0.6782	-0.352
Mof_C 	C 	0.7211	0.0673	0.7306	-0.288
Mof_C 	C 	0.5774	0.0742	0.7846	-0.343
Mof_C 	C 	0.4346	0.8916	0.6894	-0.337
Mof_C 	C 	0.2787	0.3375	0.6312	0.317
Mof_C 	C 	0.7961	0.7623	0.6431	0.276
Mof_C 	C 	0.3288	0.94	0.8017	0.185
Mof_C 	C 	0.7283	0.6641	0.652	0.286
Mof_C 	C 	0.582	0.116	0.6697	-0.348
Mof_C 	C 	0.2935	0.1679	0.6788	-0.421
Mof_C 	C 	0.6767	0.0927	0.6756	0.243
Mof_C 	C 	0.3403	0.9091	0.6909	0.191
Mof_C 	C 	0.2077	0.3177	0.6208	-0.349
Mof_C 	C 	0.6736	0.0558	0.7873	0.223
Mof_C 	C 	0.4777	0.8923	0.7432	0.348
Mof_C 	C 	0.3675	0.1865	0.6882	0.388
Mof_C 	C 	0.802	0.6824	0.6257	-0.335
Mof_C 	C 	0.1817	0.9543	0.7578	0.419
Mof_C 	C 	0.4231	0.9239	0.8005	-0.312
Mof_C 	C 	0.6439	0.8111	0.7004	0.386
Mof_C 	C 	0.8816	0.6122	0.583	0.544
Mof_C 	C 	0.2149	0.2323	0.6479	0.328
Mof_C 	C 	0.6492	0.7282	0.6889	-0.424
Mof_C 	C 	0.3581	0.2763	0.6645	-0.406
Mof_C 	C 	0.1268	0.3856	0.5769	0.574
Mof_C 	C 	0.8233	0.0427	0.7287	0.45
Mof_C 	C 	0.1059	0.5321	0.2284	0.364
Mof_C 	C 	0.9355	0.2803	0.2492	-0.236
Mof_C 	C 	0.8358	0.7184	0.1782	-0.352
Mof_C 	C 	0.0673	0.7211	0.2306	-0.288
Mof_C 	C 	0.0742	0.5774	0.2846	-0.343
Mof_C 	C 	0.8916	0.4346	0.1894	-0.337
Mof_C 	C 	0.3375	0.2787	0.1312	0.317
Mof_C 	C 	0.7623	0.7961	0.1431	0.276
Mof_C 	C 	0.94	0.3288	0.3017	0.185
Mof_C 	C 	0.6641	0.7283	0.152	0.287
Mof_C 	C 	0.116	0.582	0.1697	-0.348
Mof_C 	C 	0.1679	0.2935	0.1788	-0.421
Mof_C 	C 	0.0927	0.6767	0.1756	0.243
Mof_C 	C 	0.9091	0.3403	0.1909	0.191
Mof_C 	C 	0.3177	0.2077	0.1208	-0.349
Mof_C 	C 	0.0558	0.6736	0.2873	0.223
Mof_C 	C 	0.8923	0.4777	0.2432	0.348
Mof_C 	C 	0.1865	0.3675	0.1882	0.388
Mof_C 	C 	0.6824	0.802	0.1257	-0.335
Mof_C 	C 	0.9543	0.1817	0.2578	0.419
Mof_C 	C 	0.9239	0.4231	0.3005	-0.312
Mof_C 	C 	0.8111	0.6439	0.2004	0.386
Mof_C 	C 	0.6122	0.8816	0.083	0.544
Mof_C 	C 	0.2323	0.2149	0.1479	0.328
Mof_C 	C 	0.7282	0.6492	0.1889	-0.424
Mof_C 	C 	0.2763	0.3581	0.1645	-0.406
Mof_C 	C 	0.3856	0.1268	0.0769	0.574
Mof_C 	C 	0.0427	0.8233	0.2287	0.45
Mof_C 	C 	0.4679	0.8941	0.2716	0.364
Mof_C 	C 	0.7197	0.0645	0.2508	-0.236
Mof_C 	C 	0.2816	0.1642	0.3218	-0.352
Mof_C 	C 	0.2789	0.9327	0.2694	-0.288
Mof_C 	C 	0.4226	0.9258	0.2154	-0.343
Mof_C 	C 	0.5654	0.1084	0.3106	-0.337
Mof_C 	C 	0.7213	0.6625	0.3688	0.317
Mof_C 	C 	0.2039	0.2377	0.3569	0.276
Mof_C 	C 	0.6712	0.06	0.1983	0.185
Mof_C 	C 	0.2717	0.3359	0.348	0.286
Mof_C 	C 	0.418	0.884	0.3303	-0.348
Mof_C 	C 	0.7065	0.8321	0.3212	-0.421
Mof_C 	C 	0.3233	0.9073	0.3244	0.243
Mof_C 	C 	0.6597	0.0909	0.3091	0.191
Mof_C 	C 	0.7923	0.6823	0.3792	-0.349
Mof_C 	C 	0.3264	0.9442	0.2127	0.223
Mof_C 	C 	0.5223	0.1077	0.2568	0.348
Mof_C 	C 	0.6325	0.8135	0.3118	0.388
Mof_C 	C 	0.198	0.3176	0.3743	-0.335
Mof_C 	C 	0.8183	0.0457	0.2422	0.419
Mof_C 	C 	0.5769	0.0761	0.1995	-0.312
Mof_C 	C 	0.3561	0.1889	0.2996	0.386
Mof_C 	C 	0.1184	0.3878	0.417	0.544
Mof_C 	C 	0.7851	0.7677	0.3521	0.328
Mof_C 	C 	0.3508	0.2718	0.3111	-0.424
Mof_C 	C 	0.6419	0.7237	0.3355	-0.406
Mof_C 	C 	0.8732	0.6144	0.4231	0.574
Mof_C 	C 	0.1767	0.9573	0.2713	0.45
Mof_O 	O 	0.5365	0.8703	0.9399	-0.515
Mof_O 	O 	0.3575	0.0583	0.938	-0.5
Mof_O 	O 	0.6343	0.9307	0.9315	-0.573
Mof_O 	O 	0.4568	0.1186	0.9305	-0.572
Mof_O 	O 	0.8825	0.5575	0.7726	-0.342
Mof_O 	O 	0.1204	0.4302	0.7617	-0.337
Mof_O 	O 	0.0311	0.8643	0.6919	-0.487
Mof_O 	O 	0.0456	0.8572	0.7994	-0.472
Mof_O 	O 	0.9489	0.1325	0.8184	-0.511
Mof_O 	O 	0.9788	0.1362	0.7136	-0.458
Mof_O 	O 	0.1297	0.4635	0.5601	-0.516
Mof_O 	O 	0.9417	0.6425	0.562	-0.499
Mof_O 	O 	0.0693	0.3657	0.5685	-0.573
Mof_O 	O 	0.8814	0.5432	0.5695	-0.571
Mof_O 	O 	0.4425	0.1175	0.7274	-0.342
Mof_O 	O 	0.5698	0.8796	0.7383	-0.336
Mof_O 	O 	0.1357	0.9689	0.8081	-0.487
Mof_O 	O 	0.1428	0.9544	0.7006	-0.472
Mof_O 	O 	0.8675	0.0511	0.6816	-0.51
Mof_O 	O 	0.8638	0.0212	0.7864	-0.458
Mof_O 	O 	0.4635	0.1297	0.0601	-0.515
Mof_O 	O 	0.6425	0.9417	0.062	-0.5
Mof_O 	O 	0.3657	0.0693	0.0685	-0.573
Mof_O 	O 	0.5432	0.8814	0.0695	-0.572
Mof_O 	O 	0.1175	0.4425	0.2274	-0.342
Mof_O 	O 	0.8796	0.5698	0.2383	-0.337
Mof_O 	O 	0.9689	0.1357	0.3081	-0.487
Mof_O 	O 	0.9544	0.1428	0.2006	-0.472
Mof_O 	O 	0.0511	0.8675	0.1816	-0.511
Mof_O 	O 	0.0212	0.8638	0.2864	-0.458
Mof_O 	O 	0.8703	0.5365	0.4399	-0.516
Mof_O 	O 	0.0583	0.3575	0.438	-0.499
Mof_O 	O 	0.9307	0.6343	0.4315	-0.573
Mof_O 	O 	0.1186	0.4568	0.4305	-0.571
Mof_O 	O 	0.5575	0.8825	0.2726	-0.342
Mof_O 	O 	0.4302	0.1204	0.2617	-0.336
Mof_O 	O 	0.8643	0.0311	0.1919	-0.487
Mof_O 	O 	0.8572	0.0456	0.2994	-0.472
Mof_O 	O 	0.1325	0.9489	0.3184	-0.51
Mof_O 	O 	0.1362	0.9788	0.2136	-0.458
_end
