# CIF file generated by openbabel 3.1.0, see https://openbabel.org
data_I
_chemical_name_common 'image0'
_cell_length_a 11.6752
_cell_length_b 11.6752
_cell_length_c 12.8954
_cell_angle_alpha 90
_cell_angle_beta 90
_cell_angle_gamma 90
_space_group_name_H-M_alt 'P 1'
_space_group_name_Hall 'P 1'
loop_
    _symmetry_equiv_pos_as_xyz
    x,y,z
loop_
    _atom_site_label
    _atom_site_type_symbol
    _atom_site_fract_x
    _atom_site_fract_y
    _atom_site_fract_z
    _atom_site_occupancy
    N1       N        0.20086    0.13160    0.38789    1.000
    N2       N        0.41190    0.27900    0.61089    1.000
    C1       C        0.13320    0.08140    0.34200    1.000
    C2       C        0.44900    0.35350    0.65890    1.000
    N3       N        0.70086    0.63160    0.88789    1.000
    N4       N        0.91190    0.77900    0.11089    1.000
    C3       C        0.63320    0.58140    0.84200    1.000
    C4       C        0.94900    0.85350    0.15890    1.000
    N5       N        0.79914    0.86840    0.38789    1.000
    N6       N        0.58810    0.72100    0.61089    1.000
    C5       C        0.86680    0.91860    0.34200    1.000
    C6       C        0.55100    0.64650    0.65890    1.000
    N7       N        0.29914    0.36840    0.88789    1.000
    N8       N        0.08810    0.22100    0.11089    1.000
    C7       C        0.36680    0.41860    0.84200    1.000
    C8       C        0.05100    0.14650    0.15890    1.000
    N9       N        0.86840    0.20086    0.38789    1.000
    N10      N        0.72100    0.41190    0.61089    1.000
    C9       C        0.91860    0.13320    0.34200    1.000
    C10      C        0.64650    0.44900    0.65890    1.000
    N11      N        0.36840    0.70086    0.88789    1.000
    N12      N        0.22100    0.91190    0.11089    1.000
    C11      C        0.41860    0.63320    0.84200    1.000
    C12      C        0.14650    0.94900    0.15890    1.000
    N13      N        0.13160    0.79914    0.38789    1.000
    N14      N        0.27900    0.58810    0.61089    1.000
    C13      C        0.08140    0.86680    0.34200    1.000
    C14      C        0.35350    0.55100    0.65890    1.000
    N15      N        0.63160    0.29914    0.88789    1.000
    N16      N        0.77900    0.08810    0.11089    1.000
    C15      C        0.58140    0.36680    0.84200    1.000
    C16      C        0.85350    0.05100    0.15890    1.000
    N17      N        0.79914    0.86840    0.61211    1.000
    N18      N        0.58810    0.72100    0.38911    1.000
    C17      C        0.86680    0.91860    0.65800    1.000
    C18      C        0.55100    0.64650    0.34110    1.000
    N19      N        0.29914    0.36840    0.11211    1.000
    N20      N        0.08810    0.22100    0.88911    1.000
    C19      C        0.36680    0.41860    0.15800    1.000
    C20      C        0.05100    0.14650    0.84110    1.000
    N21      N        0.20086    0.13160    0.61211    1.000
    N22      N        0.41190    0.27900    0.38911    1.000
    C21      C        0.13320    0.08140    0.65800    1.000
    C22      C        0.44900    0.35350    0.34110    1.000
    N23      N        0.70086    0.63160    0.11211    1.000
    N24      N        0.91190    0.77900    0.88911    1.000
    C23      C        0.63320    0.58140    0.15800    1.000
    C24      C        0.94900    0.85350    0.84110    1.000
    N25      N        0.13160    0.79914    0.61211    1.000
    N26      N        0.27900    0.58810    0.38911    1.000
    C25      C        0.08140    0.86680    0.65800    1.000
    C26      C        0.35350    0.55100    0.34110    1.000
    N27      N        0.63160    0.29914    0.11211    1.000
    N28      N        0.77900    0.08810    0.88911    1.000
    C27      C        0.58140    0.36680    0.15800    1.000
    C28      C        0.85350    0.05100    0.84110    1.000
    N29      N        0.86840    0.20086    0.61211    1.000
    N30      N        0.72100    0.41190    0.38911    1.000
    C29      C        0.91860    0.13320    0.65800    1.000
    C30      C        0.64650    0.44900    0.34110    1.000
    N31      N        0.36840    0.70086    0.11211    1.000
    N32      N        0.22100    0.91190    0.88911    1.000
    C31      C        0.41860    0.63320    0.15800    1.000
    C32      C        0.14650    0.94900    0.84110    1.000
    W1       W        0.00000    0.00000    0.25101    1.000
    W2       W        0.50000    0.50000    0.75101    1.000
    W3       W        0.00000    0.00000    0.74899    1.000
    W4       W        0.50000    0.50000    0.24899    1.000
    Ni1      Ni       0.30589    0.20181    0.50000    1.000
    Ni2      Ni       0.80589    0.70181    0.00000    1.000
    Ni3      Ni       0.69411    0.79819    0.50000    1.000
    Ni4      Ni       0.19411    0.29819    0.00000    1.000
    Ni5      Ni       0.79819    0.30589    0.50000    1.000
    Ni6      Ni       0.29819    0.80589    0.00000    1.000
    Ni7      Ni       0.20181    0.69411    0.50000    1.000
    Ni8      Ni       0.70181    0.19411    0.00000    1.000
