data_functionalizedCrystal
_audit_creation_method	'EQeq! by Chris Wilmer'
_symmetry_space_group_name_H-M	'P1'
_symmetry_Int_Tables_number	1
_symmetry_cell_setting	triclinic
loop_
_symmetry_equiv_pos_as_xyz
  x,y,z
_cell_length_a	8.789
_cell_length_b	14.257
_cell_length_c	15.1092
_cell_angle_alpha	114.932
_cell_angle_beta	106.909
_cell_angle_gamma	90
loop_
_atom_site_label
_atom_site_type_symbol
_atom_site_fract_x
_atom_site_fract_y
_atom_site_fract_z
_atom_site_charge
Mof_Ce	Ce	0.50515	0.00501	0.54654	2.751
Mof_Ce	Ce	0.95861	0.99499	0.45346	2.625
Mof_H 	H 	0.4424	0.7991	0.6672	-0.05
Mof_H 	H 	0.4532	0.6398	0.681	0.076
Mof_H 	H 	0.9824	0.5569	0.5332	0.029
Mof_H 	H 	0.9721	0.7133	0.5198	-0.088
Mof_H 	H 	0.4209	0.5307	0.7432	0.076
Mof_H 	H 	0.4569	0.3636	0.7392	0.001
Mof_H 	H 	0.075	0.2354	0.487	-0.059
Mof_H 	H 	0.0517	0.3955	0.4822	0.105
Mof_H 	H 	0.3918	0.7153	0.2212	-0.085
Mof_H 	H 	0.3239	0.5666	0.07	0.144
Mof_H 	H 	0.862	0.5772	0.054	0.208
Mof_H 	H 	0.9363	0.7211	0.2114	-0.208
Mof_H 	H 	0.7752	0.2009	0.3328	-0.056
Mof_H 	H 	0.7722	0.3602	0.319	0.073
Mof_H 	H 	0.4492	0.4431	0.4668	0.097
Mof_H 	H 	0.4523	0.2867	0.4802	-0.023
Mof_H 	H 	0.6777	0.4693	0.2568	0.067
Mof_H 	H 	0.7177	0.6364	0.2608	0.001
Mof_H 	H 	0.588	0.7646	0.513	-0.074
Mof_H 	H 	0.5695	0.6045	0.5178	0.081
Mof_H 	H 	0.1706	0.2847	0.7788	-0.06
Mof_H 	H 	0.2539	0.4334	0.93	0.111
Mof_H 	H 	0.808	0.4228	0.946	0.114
Mof_H 	H 	0.7249	0.2789	0.7886	-0.06
Mof_C 	C 	0.1955	0.8672	0.5738	0.612
Mof_C 	C 	0.2031	0.7681	0.5868	-0.292
Mof_C 	C 	0.3508	0.7502	0.6388	0.144
Mof_C 	C 	0.3561	0.654	0.647	-0.174
Mof_C 	C 	0.2207	0.5817	0.6058	0.056
Mof_C 	C 	0.0756	0.6038	0.559	-0.116
Mof_C 	C 	0.0705	0.6982	0.551	0.23
Mof_C 	C 	0.2327	0.4775	0.6098	0.082
Mof_C 	C 	0.3545	0.4709	0.6896	-0.155
Mof_C 	C 	0.3753	0.3699	0.6874	0.095
Mof_C 	C 	0.276	0.2845	0.6102	-0.197
Mof_C 	C 	0.1491	0.2937	0.536	0.143
Mof_C 	C 	0.1326	0.3906	0.535	-0.186
Mof_C 	C 	0.3131	0.1772	0.6018	0.46
Mof_C 	C 	0.2199	0.8334	0.3292	0.704
Mof_C 	C 	0.1743	0.7343	0.233	-0.497
Mof_C 	C 	0.2844	0.6858	0.1886	0.358
Mof_C 	C 	0.2454	0.5962	0.0988	-0.359
Mof_C 	C 	0.0778	0.5477	0.0484	0.284
Mof_C 	C 	0.9708	0.6011	0.0896	-0.591
Mof_C 	C 	0.0145	0.6905	0.1826	0.572
Mof_C 	C 	0.6217	0.1328	0.4262	0.603
Mof_C 	C 	0.6163	0.2319	0.4132	-0.277
Mof_C 	C 	0.712	0.2498	0.3612	0.135
Mof_C 	C 	0.7091	0.346	0.353	-0.19
Mof_C 	C 	0.6149	0.4183	0.3942	0.084
Mof_C 	C 	0.5166	0.3962	0.441	-0.196
Mof_C 	C 	0.5195	0.3018	0.449	0.155
Mof_C 	C 	0.6229	0.5225	0.3902	0.057
Mof_C 	C 	0.6649	0.5291	0.3104	-0.147
Mof_C 	C 	0.6879	0.6301	0.3126	0.085
Mof_C 	C 	0.6658	0.7155	0.3898	-0.2
Mof_C 	C 	0.6131	0.7063	0.464	0.132
Mof_C 	C 	0.5976	0.6094	0.465	-0.177
Mof_C 	C 	0.7113	0.8228	0.3982	0.458
Mof_C 	C 	0.8907	0.1666	0.6708	0.668
Mof_C 	C 	0.9413	0.2657	0.767	-0.422
Mof_C 	C 	0.0958	0.3142	0.8114	0.309
Mof_C 	C 	0.1466	0.4038	0.9012	-0.253
Mof_C 	C 	0.0294	0.4523	0.9516	0.12
Mof_C 	C 	0.8812	0.3989	0.9104	-0.305
Mof_C 	C 	0.8319	0.3095	0.8174	0.245
Mof_O 	O 	0.3235	0.9146	0.5856	-0.701
Mof_O 	O 	0.0611	0.8965	0.5518	-0.582
Mof_O 	O 	0.2324	0.0976	0.5234	-0.699
Mof_O 	O 	0.4307	0.1717	0.6682	-0.543
Mof_O 	O 	0.3649	0.869	0.3736	-0.66
Mof_O 	O 	0.1122	0.8772	0.361	-0.686
Mof_O 	O 	0.7379	0.0854	0.4144	-0.702
Mof_O 	O 	0.5093	0.1035	0.4482	-0.629
Mof_O 	O 	0.709	0.9024	0.4766	-0.715
Mof_O 	O 	0.7625	0.8283	0.3318	-0.538
Mof_O 	O 	0.9913	0.131	0.6264	-0.674
Mof_O 	O 	0.7512	0.1228	0.639	-0.724
_end
