data_functionalizedCrystal
_audit_creation_method	'EQeq! by Chris Wilmer'
_symmetry_space_group_name_H-M	'P1'
_symmetry_Int_Tables_number	1
_symmetry_cell_setting	triclinic
loop_
_symmetry_equiv_pos_as_xyz
  x,y,z
_cell_length_a	13.8637
_cell_length_b	18.9411
_cell_length_c	19.0079
_cell_angle_alpha	90
_cell_angle_beta	90
_cell_angle_gamma	90
loop_
_atom_site_label
_atom_site_type_symbol
_atom_site_fract_x
_atom_site_fract_y
_atom_site_fract_z
_atom_site_charge
Mof_Zn	Zn	0.36485	0.89688	0.5685	1.239
Mof_Zn	Zn	0.63516	0.39688	0.9315	1.239
Mof_Zn	Zn	0.63516	0.10312	0.4315	1.239
Mof_Zn	Zn	0.36485	0.60312	0.0685	1.239
Mof_Co	Co	0.40355	0.48311	0.95656	1.178
Mof_Co	Co	0.59645	0.98311	0.54344	1.179
Mof_Co	Co	0.59645	0.51689	0.04344	1.178
Mof_Co	Co	0.40355	0.01689	0.45656	1.179
Mof_H 	H 	0.4131	0.7182	0.7014	0.07
Mof_H 	H 	0.4202	0.635	0.7895	0.047
Mof_H 	H 	0.3777	0.7859	0.9329	0.05
Mof_H 	H 	0.3749	0.8692	0.8442	0.06
Mof_H 	H 	0.1121	0.0667	0.4418	0.046
Mof_H 	H 	0.0489	0.9108	0.5738	0.051
Mof_H 	H 	0.3835	0.3666	0.0791	-0.01
Mof_H 	H 	0.357	0.2476	0.0902	0.085
Mof_H 	H 	0.3487	0.178	0.9909	0.046
Mof_H 	H 	0.3467	0.3499	0.6826	0.038
Mof_H 	H 	0.3548	0.4708	0.6886	0.079
Mof_H 	H 	0.3761	0.5241	0.7966	0.014
Mof_H 	H 	0.4362	0.0024	0.5856	0.567
Mof_H 	H 	0.5869	0.2182	0.7986	0.069
Mof_H 	H 	0.5798	0.135	0.7105	0.046
Mof_H 	H 	0.6223	0.2859	0.5671	0.05
Mof_H 	H 	0.6251	0.3692	0.6558	0.06
Mof_H 	H 	0.8879	0.5667	0.0582	0.049
Mof_H 	H 	0.9511	0.4108	0.9262	0.049
Mof_H 	H 	0.6165	0.8666	0.4209	-0.01
Mof_H 	H 	0.643	0.7476	0.4098	0.086
Mof_H 	H 	0.6513	0.678	0.5091	0.046
Mof_H 	H 	0.6533	0.8499	0.8174	0.037
Mof_H 	H 	0.6452	0.9708	0.8114	0.081
Mof_H 	H 	0.6239	0.0241	0.7034	0.011
Mof_H 	H 	0.5638	0.5024	0.9144	0.566
Mof_H 	H 	0.5869	0.2818	0.2986	0.069
Mof_H 	H 	0.5798	0.365	0.2105	0.046
Mof_H 	H 	0.6223	0.2141	0.0671	0.05
Mof_H 	H 	0.6251	0.1308	0.1558	0.06
Mof_H 	H 	0.8879	0.9333	0.5582	0.046
Mof_H 	H 	0.9511	0.0892	0.4262	0.051
Mof_H 	H 	0.6165	0.6334	0.9209	-0.01
Mof_H 	H 	0.643	0.7524	0.9098	0.085
Mof_H 	H 	0.6513	0.822	0.0091	0.046
Mof_H 	H 	0.6533	0.6501	0.3174	0.038
Mof_H 	H 	0.6452	0.5292	0.3114	0.079
Mof_H 	H 	0.6239	0.4759	0.2034	0.014
Mof_H 	H 	0.5638	0.9976	0.4144	0.567
Mof_H 	H 	0.4131	0.7818	0.2014	0.069
Mof_H 	H 	0.4202	0.865	0.2895	0.046
Mof_H 	H 	0.3777	0.7141	0.4329	0.05
Mof_H 	H 	0.3749	0.6308	0.3442	0.06
Mof_H 	H 	0.1121	0.4333	0.9418	0.049
Mof_H 	H 	0.0489	0.5892	0.0738	0.049
Mof_H 	H 	0.3835	0.1334	0.5791	-0.01
Mof_H 	H 	0.357	0.2524	0.5902	0.086
Mof_H 	H 	0.3487	0.322	0.4909	0.046
Mof_H 	H 	0.3467	0.1501	0.1826	0.037
Mof_H 	H 	0.3548	0.0292	0.1886	0.081
Mof_H 	H 	0.3761	0.9759	0.2966	0.011
Mof_H 	H 	0.4362	0.4976	0.0856	0.566
Mof_C 	C 	0.38653	0.85637	0.70651	0.334
Mof_C 	C 	0.39237	0.80174	0.76367	-0.046
Mof_C 	C 	0.4061	0.7321	0.74803	-0.03
Mof_C 	C 	0.4095	0.68213	0.8008	0.011
Mof_C 	C 	0.39716	0.70143	0.87028	-0.087
Mof_C 	C 	0.3847	0.77186	0.88625	0.001
Mof_C 	C 	0.3828	0.82178	0.83307	-0.037
Mof_C 	C 	0.39561	0.64619	0.92726	0.387
Mof_C 	C 	0.20347	0.97237	0.51675	0.379
Mof_C 	C 	0.09798	0.9863	0.50909	-0.084
Mof_C 	C 	0.0669	0.03934	0.46555	0.006
Mof_C 	C 	0.02968	0.94699	0.54376	-0.021
Mof_C 	C 	0.3781	0.33925	0.0387	0.077
Mof_C 	C 	0.3631	0.26767	0.0458	-0.11
Mof_C 	C 	0.3572	0.22655	0.9869	0.013
Mof_C 	C 	0.364	0.25758	0.92127	-0.039
Mof_C 	C 	0.3564	0.21607	0.856	0.11
Mof_C 	C 	0.3546	0.25502	0.7853	0.121
Mof_C 	C 	0.36215	0.33292	0.78681	-0.048
Mof_C 	C 	0.3549	0.3723	0.72574	0.021
Mof_C 	C 	0.3598	0.4435	0.72913	-0.104
Mof_C 	C 	0.3725	0.47514	0.79445	0.073
Mof_C 	C 	0.37405	0.36825	0.85036	0.041
Mof_C 	C 	0.3762	0.33096	0.91823	0.034
Mof_C 	C 	0.61347	0.35637	0.79349	0.334
Mof_C 	C 	0.60763	0.30174	0.73633	-0.046
Mof_C 	C 	0.5939	0.2321	0.75197	-0.03
Mof_C 	C 	0.5905	0.18213	0.6992	0.011
Mof_C 	C 	0.60284	0.20143	0.62972	-0.087
Mof_C 	C 	0.6153	0.27186	0.61375	0.001
Mof_C 	C 	0.6172	0.32178	0.66693	-0.038
Mof_C 	C 	0.60439	0.14619	0.57274	0.387
Mof_C 	C 	0.79653	0.47237	0.98325	0.38
Mof_C 	C 	0.90202	0.4863	0.99091	-0.08
Mof_C 	C 	0.9331	0.53934	0.03445	-0.005
Mof_C 	C 	0.97032	0.44699	0.95624	-0.015
Mof_C 	C 	0.6219	0.83925	0.4613	0.078
Mof_C 	C 	0.6369	0.76767	0.4542	-0.111
Mof_C 	C 	0.6428	0.72655	0.5131	0.014
Mof_C 	C 	0.636	0.75758	0.57873	-0.039
Mof_C 	C 	0.6436	0.71607	0.644	0.11
Mof_C 	C 	0.6454	0.75502	0.7147	0.121
Mof_C 	C 	0.63785	0.83292	0.71319	-0.049
Mof_C 	C 	0.6451	0.8723	0.77426	0.023
Mof_C 	C 	0.6402	0.9435	0.77087	-0.108
Mof_C 	C 	0.6275	0.97514	0.70555	0.078
Mof_C 	C 	0.62595	0.86825	0.64964	0.042
Mof_C 	C 	0.6238	0.83096	0.58177	0.034
Mof_C 	C 	0.61347	0.14363	0.29349	0.334
Mof_C 	C 	0.60763	0.19826	0.23633	-0.046
Mof_C 	C 	0.5939	0.2679	0.25197	-0.03
Mof_C 	C 	0.5905	0.31787	0.1992	0.011
Mof_C 	C 	0.60284	0.29857	0.12972	-0.087
Mof_C 	C 	0.6153	0.22814	0.11375	0.001
Mof_C 	C 	0.6172	0.17822	0.16693	-0.037
Mof_C 	C 	0.60439	0.35381	0.07274	0.387
Mof_C 	C 	0.79653	0.02763	0.48325	0.379
Mof_C 	C 	0.90202	0.0137	0.49091	-0.084
Mof_C 	C 	0.9331	0.96066	0.53445	0.006
Mof_C 	C 	0.97032	0.05301	0.45624	-0.021
Mof_C 	C 	0.6219	0.66075	0.9613	0.077
Mof_C 	C 	0.6369	0.73233	0.9542	-0.11
Mof_C 	C 	0.6428	0.77345	0.0131	0.013
Mof_C 	C 	0.636	0.74242	0.07873	-0.039
Mof_C 	C 	0.6436	0.78393	0.144	0.11
Mof_C 	C 	0.6454	0.74498	0.2147	0.121
Mof_C 	C 	0.63785	0.66708	0.21319	-0.048
Mof_C 	C 	0.6451	0.6277	0.27426	0.021
Mof_C 	C 	0.6402	0.5565	0.27087	-0.104
Mof_C 	C 	0.6275	0.52486	0.20555	0.073
Mof_C 	C 	0.62595	0.63175	0.14964	0.041
Mof_C 	C 	0.6238	0.66904	0.08177	0.034
Mof_C 	C 	0.38653	0.64363	0.20651	0.334
Mof_C 	C 	0.39237	0.69826	0.26367	-0.046
Mof_C 	C 	0.4061	0.7679	0.24803	-0.03
Mof_C 	C 	0.4095	0.81787	0.3008	0.011
Mof_C 	C 	0.39716	0.79857	0.37028	-0.087
Mof_C 	C 	0.3847	0.72814	0.38625	0.001
Mof_C 	C 	0.3828	0.67822	0.33307	-0.038
Mof_C 	C 	0.39561	0.85381	0.42726	0.387
Mof_C 	C 	0.20347	0.52763	0.01675	0.38
Mof_C 	C 	0.09798	0.5137	0.00909	-0.08
Mof_C 	C 	0.0669	0.46066	0.96555	-0.005
Mof_C 	C 	0.02968	0.55301	0.04376	-0.015
Mof_C 	C 	0.3781	0.16075	0.5387	0.078
Mof_C 	C 	0.3631	0.23233	0.5458	-0.111
Mof_C 	C 	0.3572	0.27345	0.4869	0.014
Mof_C 	C 	0.364	0.24242	0.42127	-0.039
Mof_C 	C 	0.3564	0.28393	0.356	0.11
Mof_C 	C 	0.3546	0.24498	0.2853	0.121
Mof_C 	C 	0.36215	0.16708	0.28681	-0.049
Mof_C 	C 	0.3549	0.1277	0.22574	0.023
Mof_C 	C 	0.3598	0.0565	0.22913	-0.108
Mof_C 	C 	0.3725	0.02486	0.29445	0.078
Mof_C 	C 	0.37405	0.13175	0.35036	0.042
Mof_C 	C 	0.3762	0.16904	0.41823	0.034
Mof_N 	N 	0.38539	0.37097	0.97605	-0.225
Mof_N 	N 	0.37978	0.43882	0.85398	-0.22
Mof_N 	N 	0.61461	0.87097	0.52395	-0.224
Mof_N 	N 	0.62022	0.93882	0.64602	-0.22
Mof_N 	N 	0.61461	0.62903	0.02395	-0.225
Mof_N 	N 	0.62022	0.56118	0.14602	-0.22
Mof_N 	N 	0.38539	0.12903	0.47605	-0.224
Mof_N 	N 	0.37978	0.06118	0.35398	-0.22
Mof_O 	O 	0.3873	0.83215	0.6442	-0.45
Mof_O 	O 	0.38091	0.91885	0.72132	-0.312
Mof_O 	O 	0.40877	0.58352	0.91003	-0.455
Mof_O 	O 	0.38126	0.66794	0.98908	-0.46
Mof_O 	O 	0.25929	0.00745	0.47929	-0.45
Mof_O 	O 	0.22851	0.92591	0.56115	-0.471
Mof_O 	O 	0.3516	0.15199	0.8564	-0.181
Mof_O 	O 	0.3466	0.22156	0.73167	-0.192
Mof_O 	O 	0.44545	0.98064	0.55666	-1.143
Mof_O 	O 	0.6127	0.33215	0.8558	-0.451
Mof_O 	O 	0.61909	0.41885	0.77868	-0.312
Mof_O 	O 	0.59123	0.08352	0.58997	-0.455
Mof_O 	O 	0.61874	0.16794	0.51092	-0.461
Mof_O 	O 	0.74071	0.50745	0.02071	-0.453
Mof_O 	O 	0.77149	0.42591	0.93885	-0.471
Mof_O 	O 	0.6484	0.65199	0.6436	-0.181
Mof_O 	O 	0.6534	0.72156	0.76833	-0.193
Mof_O 	O 	0.55455	0.48064	0.94334	-1.142
Mof_O 	O 	0.6127	0.16785	0.3558	-0.45
Mof_O 	O 	0.61909	0.08115	0.27868	-0.312
Mof_O 	O 	0.59123	0.41648	0.08997	-0.455
Mof_O 	O 	0.61874	0.33206	0.01092	-0.46
Mof_O 	O 	0.74071	0.99255	0.52071	-0.45
Mof_O 	O 	0.77149	0.07409	0.43885	-0.471
Mof_O 	O 	0.6484	0.84801	0.1436	-0.181
Mof_O 	O 	0.6534	0.77844	0.26833	-0.192
Mof_O 	O 	0.55455	0.01936	0.44334	-1.143
Mof_O 	O 	0.3873	0.66785	0.1442	-0.451
Mof_O 	O 	0.38091	0.58115	0.22132	-0.312
Mof_O 	O 	0.40877	0.91648	0.41003	-0.455
Mof_O 	O 	0.38126	0.83206	0.48908	-0.461
Mof_O 	O 	0.25929	0.49255	0.97929	-0.453
Mof_O 	O 	0.22851	0.57409	0.06115	-0.471
Mof_O 	O 	0.3516	0.34801	0.3564	-0.181
Mof_O 	O 	0.3466	0.27844	0.23167	-0.193
Mof_O 	O 	0.44545	0.51936	0.05666	-1.142
Mof_Zn	Zn	0.13516	0.10312	0.0685	1.238
Mof_Zn	Zn	0.86485	0.60312	0.4315	1.238
Mof_Zn	Zn	0.86485	0.89688	0.9315	1.238
Mof_Zn	Zn	0.13516	0.39688	0.5685	1.238
Mof_Co	Co	0.09645	0.51689	0.45656	1.177
Mof_Co	Co	0.90355	0.01689	0.04344	1.175
Mof_Co	Co	0.90355	0.48311	0.54344	1.177
Mof_Co	Co	0.09645	0.98311	0.95656	1.175
Mof_H 	H 	0.0869	0.2818	0.2014	0.069
Mof_H 	H 	0.0798	0.365	0.2895	0.046
Mof_H 	H 	0.1223	0.2141	0.4329	0.051
Mof_H 	H 	0.1251	0.1308	0.3442	0.061
Mof_H 	H 	0.3879	0.9333	0.9418	0.05
Mof_H 	H 	0.4511	0.0892	0.0738	0.049
Mof_H 	H 	0.1165	0.6334	0.5791	-0.01
Mof_H 	H 	0.143	0.7524	0.5902	0.085
Mof_H 	H 	0.1513	0.822	0.4909	0.046
Mof_H 	H 	0.1533	0.6501	0.1826	0.038
Mof_H 	H 	0.1452	0.5292	0.1886	0.079
Mof_H 	H 	0.1239	0.4759	0.2966	0.014
Mof_H 	H 	0.0638	0.9976	0.0856	0.553
Mof_H 	H 	0.9131	0.7818	0.2986	0.07
Mof_H 	H 	0.9202	0.865	0.2105	0.047
Mof_H 	H 	0.8777	0.7141	0.0671	0.051
Mof_H 	H 	0.8749	0.6308	0.1558	0.06
Mof_H 	H 	0.6121	0.4333	0.5582	0.05
Mof_H 	H 	0.5489	0.5892	0.4262	0.049
Mof_H 	H 	0.8835	0.1334	0.9209	-0.011
Mof_H 	H 	0.857	0.2524	0.9098	0.086
Mof_H 	H 	0.8487	0.322	0.0091	0.045
Mof_H 	H 	0.8467	0.1501	0.3174	0.039
Mof_H 	H 	0.8548	0.0292	0.3114	0.077
Mof_H 	H 	0.8761	0.9759	0.2034	0.02
Mof_H 	H 	0.9362	0.4976	0.4144	0.565
Mof_H 	H 	0.9131	0.7182	0.7986	0.069
Mof_H 	H 	0.9202	0.635	0.7105	0.046
Mof_H 	H 	0.8777	0.7859	0.5671	0.051
Mof_H 	H 	0.8749	0.8692	0.6558	0.061
Mof_H 	H 	0.6121	0.0667	0.0582	0.05
Mof_H 	H 	0.5489	0.9108	0.9262	0.049
Mof_H 	H 	0.8835	0.3666	0.4209	-0.01
Mof_H 	H 	0.857	0.2476	0.4098	0.085
Mof_H 	H 	0.8487	0.178	0.5091	0.046
Mof_H 	H 	0.8467	0.3499	0.8174	0.038
Mof_H 	H 	0.8548	0.4708	0.8114	0.079
Mof_H 	H 	0.8761	0.5241	0.7034	0.014
Mof_H 	H 	0.9362	0.0024	0.9144	0.553
Mof_H 	H 	0.0869	0.2182	0.7014	0.07
Mof_H 	H 	0.0798	0.135	0.7895	0.047
Mof_H 	H 	0.1223	0.2859	0.9329	0.051
Mof_H 	H 	0.1251	0.3692	0.8442	0.06
Mof_H 	H 	0.3879	0.5667	0.4418	0.05
Mof_H 	H 	0.4511	0.4108	0.5738	0.049
Mof_H 	H 	0.1165	0.8666	0.0791	-0.011
Mof_H 	H 	0.143	0.7476	0.0902	0.086
Mof_H 	H 	0.1513	0.678	0.9909	0.045
Mof_H 	H 	0.1533	0.8499	0.6826	0.039
Mof_H 	H 	0.1452	0.9708	0.6886	0.077
Mof_H 	H 	0.1239	0.0241	0.7966	0.02
Mof_H 	H 	0.0638	0.5024	0.5856	0.565
Mof_C 	C 	0.11347	0.14363	0.20651	0.333
Mof_C 	C 	0.10763	0.19826	0.26367	-0.045
Mof_C 	C 	0.0939	0.2679	0.24803	-0.03
Mof_C 	C 	0.0905	0.31787	0.3008	0.012
Mof_C 	C 	0.10284	0.29857	0.37028	-0.087
Mof_C 	C 	0.1153	0.22814	0.38625	0.002
Mof_C 	C 	0.1172	0.17822	0.33307	-0.038
Mof_C 	C 	0.10439	0.35381	0.42726	0.387
Mof_C 	C 	0.29653	0.02763	0.01675	0.384
Mof_C 	C 	0.40202	0.0137	0.00909	-0.079
Mof_C 	C 	0.4331	0.96066	0.96555	-0.009
Mof_C 	C 	0.47032	0.05301	0.04376	-0.012
Mof_C 	C 	0.1219	0.66075	0.5387	0.077
Mof_C 	C 	0.1369	0.73233	0.5458	-0.111
Mof_C 	C 	0.1428	0.77345	0.4869	0.013
Mof_C 	C 	0.136	0.74242	0.42127	-0.04
Mof_C 	C 	0.1436	0.78393	0.356	0.11
Mof_C 	C 	0.1454	0.74498	0.2853	0.12
Mof_C 	C 	0.13785	0.66708	0.28681	-0.048
Mof_C 	C 	0.1451	0.6277	0.22574	0.021
Mof_C 	C 	0.1402	0.5565	0.22913	-0.105
Mof_C 	C 	0.1275	0.52486	0.29445	0.073
Mof_C 	C 	0.12595	0.63175	0.35036	0.041
Mof_C 	C 	0.1238	0.66904	0.41823	0.034
Mof_C 	C 	0.88653	0.64363	0.29349	0.334
Mof_C 	C 	0.89237	0.69826	0.23633	-0.046
Mof_C 	C 	0.9061	0.7679	0.25197	-0.029
Mof_C 	C 	0.9095	0.81787	0.1992	0.011
Mof_C 	C 	0.89716	0.79857	0.12972	-0.086
Mof_C 	C 	0.8847	0.72814	0.11375	0.001
Mof_C 	C 	0.8828	0.67822	0.16693	-0.037
Mof_C 	C 	0.89561	0.85381	0.07274	0.387
Mof_C 	C 	0.70347	0.52763	0.48325	0.381
Mof_C 	C 	0.59798	0.5137	0.49091	-0.08
Mof_C 	C 	0.5669	0.46066	0.53445	-0.009
Mof_C 	C 	0.52968	0.55301	0.45624	-0.012
Mof_C 	C 	0.8781	0.16075	0.9613	0.076
Mof_C 	C 	0.8631	0.23233	0.9542	-0.113
Mof_C 	C 	0.8572	0.27345	0.0131	0.016
Mof_C 	C 	0.864	0.24242	0.07873	-0.041
Mof_C 	C 	0.8564	0.28393	0.144	0.11
Mof_C 	C 	0.8546	0.24498	0.2147	0.12
Mof_C 	C 	0.86215	0.16708	0.21319	-0.046
Mof_C 	C 	0.8549	0.1277	0.27426	0.017
Mof_C 	C 	0.8598	0.0565	0.27087	-0.099
Mof_C 	C 	0.8725	0.02486	0.20555	0.064
Mof_C 	C 	0.87405	0.13175	0.14964	0.04
Mof_C 	C 	0.8762	0.16904	0.08177	0.034
Mof_C 	C 	0.88653	0.85637	0.79349	0.333
Mof_C 	C 	0.89237	0.80174	0.73633	-0.045
Mof_C 	C 	0.9061	0.7321	0.75197	-0.03
Mof_C 	C 	0.9095	0.68213	0.6992	0.012
Mof_C 	C 	0.89716	0.70143	0.62972	-0.087
Mof_C 	C 	0.8847	0.77186	0.61375	0.002
Mof_C 	C 	0.8828	0.82178	0.66693	-0.038
Mof_C 	C 	0.89561	0.64619	0.57274	0.387
Mof_C 	C 	0.70347	0.97237	0.98325	0.384
Mof_C 	C 	0.59798	0.9863	0.99091	-0.079
Mof_C 	C 	0.5669	0.03934	0.03445	-0.009
Mof_C 	C 	0.52968	0.94699	0.95624	-0.012
Mof_C 	C 	0.8781	0.33925	0.4613	0.077
Mof_C 	C 	0.8631	0.26767	0.4542	-0.111
Mof_C 	C 	0.8572	0.22655	0.5131	0.013
Mof_C 	C 	0.864	0.25758	0.57873	-0.04
Mof_C 	C 	0.8564	0.21607	0.644	0.11
Mof_C 	C 	0.8546	0.25502	0.7147	0.12
Mof_C 	C 	0.86215	0.33292	0.71319	-0.048
Mof_C 	C 	0.8549	0.3723	0.77426	0.021
Mof_C 	C 	0.8598	0.4435	0.77087	-0.105
Mof_C 	C 	0.8725	0.47514	0.70555	0.073
Mof_C 	C 	0.87405	0.36825	0.64964	0.041
Mof_C 	C 	0.8762	0.33096	0.58177	0.034
Mof_C 	C 	0.11347	0.35637	0.70651	0.334
Mof_C 	C 	0.10763	0.30174	0.76367	-0.046
Mof_C 	C 	0.0939	0.2321	0.74803	-0.029
Mof_C 	C 	0.0905	0.18213	0.8008	0.011
Mof_C 	C 	0.10284	0.20143	0.87028	-0.086
Mof_C 	C 	0.1153	0.27186	0.88625	0.001
Mof_C 	C 	0.1172	0.32178	0.83307	-0.037
Mof_C 	C 	0.10439	0.14619	0.92726	0.387
Mof_C 	C 	0.29653	0.47237	0.51675	0.381
Mof_C 	C 	0.40202	0.4863	0.50909	-0.08
Mof_C 	C 	0.4331	0.53934	0.46555	-0.009
Mof_C 	C 	0.47032	0.44699	0.54376	-0.012
Mof_C 	C 	0.1219	0.83925	0.0387	0.076
Mof_C 	C 	0.1369	0.76767	0.0458	-0.113
Mof_C 	C 	0.1428	0.72655	0.9869	0.016
Mof_C 	C 	0.136	0.75758	0.92127	-0.041
Mof_C 	C 	0.1436	0.71607	0.856	0.11
Mof_C 	C 	0.1454	0.75502	0.7853	0.12
Mof_C 	C 	0.13785	0.83292	0.78681	-0.046
Mof_C 	C 	0.1451	0.8723	0.72574	0.017
Mof_C 	C 	0.1402	0.9435	0.72913	-0.099
Mof_C 	C 	0.1275	0.97514	0.79445	0.064
Mof_C 	C 	0.12595	0.86825	0.85036	0.04
Mof_C 	C 	0.1238	0.83096	0.91823	0.034
Mof_N 	N 	0.11461	0.62903	0.47605	-0.225
Mof_N 	N 	0.12022	0.56118	0.35398	-0.22
Mof_N 	N 	0.88539	0.12903	0.02395	-0.225
Mof_N 	N 	0.87978	0.06118	0.14602	-0.218
Mof_N 	N 	0.88539	0.37097	0.52395	-0.225
Mof_N 	N 	0.87978	0.43882	0.64602	-0.22
Mof_N 	N 	0.11461	0.87097	0.97605	-0.225
Mof_N 	N 	0.12022	0.93882	0.85398	-0.218
Mof_O 	O 	0.1127	0.16785	0.1442	-0.45
Mof_O 	O 	0.11909	0.08115	0.22132	-0.31
Mof_O 	O 	0.09123	0.41648	0.41003	-0.455
Mof_O 	O 	0.11874	0.33206	0.48908	-0.46
Mof_O 	O 	0.24071	0.99255	0.97929	-0.455
Mof_O 	O 	0.27149	0.07409	0.06115	-0.471
Mof_O 	O 	0.1484	0.84801	0.3564	-0.182
Mof_O 	O 	0.1534	0.77844	0.23167	-0.193
Mof_O 	O 	0.05455	0.01936	0.05666	-1.127
Mof_O 	O 	0.8873	0.66785	0.3558	-0.45
Mof_O 	O 	0.88091	0.58115	0.27868	-0.312
Mof_O 	O 	0.90877	0.91648	0.08997	-0.453
Mof_O 	O 	0.88126	0.83206	0.01092	-0.46
Mof_O 	O 	0.75929	0.49255	0.52071	-0.453
Mof_O 	O 	0.72851	0.57409	0.43885	-0.471
Mof_O 	O 	0.8516	0.34801	0.1436	-0.181
Mof_O 	O 	0.8466	0.27844	0.26833	-0.192
Mof_O 	O 	0.94545	0.51936	0.44334	-1.142
Mof_O 	O 	0.8873	0.83215	0.8558	-0.45
Mof_O 	O 	0.88091	0.91885	0.77868	-0.31
Mof_O 	O 	0.90877	0.58352	0.58997	-0.455
Mof_O 	O 	0.88126	0.66794	0.51092	-0.46
Mof_O 	O 	0.75929	0.00745	0.02071	-0.455
Mof_O 	O 	0.72851	0.92591	0.93885	-0.471
Mof_O 	O 	0.8516	0.15199	0.6436	-0.182
Mof_O 	O 	0.8466	0.22156	0.76833	-0.193
Mof_O 	O 	0.94545	0.98064	0.94334	-1.127
Mof_O 	O 	0.1127	0.33215	0.6442	-0.45
Mof_O 	O 	0.11909	0.41885	0.72132	-0.312
Mof_O 	O 	0.09123	0.08352	0.91003	-0.453
Mof_O 	O 	0.11874	0.16794	0.98908	-0.46
Mof_O 	O 	0.24071	0.50745	0.47929	-0.453
Mof_O 	O 	0.27149	0.42591	0.56115	-0.471
Mof_O 	O 	0.1484	0.65199	0.8564	-0.181
Mof_O 	O 	0.1534	0.72156	0.73167	-0.192
Mof_O 	O 	0.05455	0.48064	0.55666	-1.142
_end
