# CIF file generated by openbabel 3.1.0, see https://openbabel.org
data_I
_chemical_name_common 'image0'
_cell_length_a 37.06
_cell_length_b 13.328
_cell_length_c 9.373
_cell_angle_alpha 90
_cell_angle_beta 102.153
_cell_angle_gamma 90
_space_group_name_H-M_alt 'P 1'
_space_group_name_Hall 'P 1'
loop_
    _symmetry_equiv_pos_as_xyz
    x,y,z
loop_
    _atom_site_label
    _atom_site_type_symbol
    _atom_site_fract_x
    _atom_site_fract_y
    _atom_site_fract_z
    _atom_site_occupancy
    Ni1      Ni       0.86212    0.21647    0.16563    1.000
    O1       O        0.82072    0.12860    0.21990    1.000
    O2       O        0.66651    0.83760    0.28420    1.000
    O3       O        0.85203    0.05630    0.42490    1.000
    N1       N        0.83158    0.22430    0.95490    1.000
    O4       O        0.64046    0.86330    0.05090    1.000
    N2       N        0.90326    0.30860    0.11190    1.000
    C1       C        0.77385    0.25450    0.79170    1.000
    H1       H        0.74900    0.27060    0.77960    1.000
    C2       C        0.79562    0.24710    0.92840    1.000
    H2       H        0.78480    0.25870    0.00780    1.000
    C3       C        0.72616    0.95710    0.25360    1.000
    H3       H        0.72580    0.92750    0.34320    1.000
    C4       C        0.69654    0.94530    0.14860    1.000
    H4       H        0.69520    0.98030    0.06190    1.000
    C5       C        0.82650    0.21500    0.69780    1.000
    H5       H        0.83820    0.20450    0.62030    1.000
    C6       C        0.75888    0.01180    0.24170    1.000
    H6       H        0.75840    0.04740    0.15610    1.000
    C7       C        0.78928    0.01500    0.34260    1.000
    H7       H        0.78970    0.98060    0.42920    1.000
    C8       C        0.76786    0.24330    0.51880    1.000
    H8       H        0.78080    0.23670    0.44430    1.000
    C9       C        0.78930    0.23780    0.67050    1.000
    C10      C        0.66524    0.87850    0.16230    1.000
    C11      C        0.82317    0.07040    0.32720    1.000
    C12      C        0.84620    0.20790    0.83780    1.000
    H9       H        0.87100    0.19080    0.85270    1.000
    C13      C        0.96460    0.33870    0.08500    1.000
    H10      H        0.98830    0.31370    0.09050    1.000
    C14      C        0.93739    0.27770    0.12030    1.000
    H11      H        0.94350    0.21240    0.15100    1.000
    C15      C        0.95630    0.43790    0.04120    1.000
    C16      C        0.98310    0.50870    0.99880    1.000
    H12      H        0.97430    0.57200    0.96750    1.000
    C17      C        0.92140    0.46720    0.03390    1.000
    H13      H        0.91430    0.53200    0.00380    1.000
    C18      C        0.89603    0.40260    0.07030    1.000
    H14      H        0.87220    0.42630    0.06550    1.000
    Ni2      Ni       0.36212    0.71647    0.16563    1.000
    O5       O        0.32072    0.62860    0.21990    1.000
    O6       O        0.16651    0.33760    0.28420    1.000
    O7       O        0.35203    0.55630    0.42490    1.000
    N3       N        0.33158    0.72430    0.95490    1.000
    O8       O        0.14046    0.36330    0.05090    1.000
    N4       N        0.40326    0.80860    0.11190    1.000
    C19      C        0.27385    0.75450    0.79170    1.000
    H15      H        0.24900    0.77060    0.77960    1.000
    C20      C        0.29562    0.74710    0.92840    1.000
    H16      H        0.28480    0.75870    0.00780    1.000
    C21      C        0.22616    0.45710    0.25360    1.000
    H17      H        0.22580    0.42750    0.34320    1.000
    C22      C        0.19654    0.44530    0.14860    1.000
    H18      H        0.19520    0.48030    0.06190    1.000
    C23      C        0.32650    0.71500    0.69780    1.000
    H19      H        0.33820    0.70450    0.62030    1.000
    C24      C        0.25888    0.51180    0.24170    1.000
    H20      H        0.25840    0.54740    0.15610    1.000
    C25      C        0.28928    0.51500    0.34260    1.000
    H21      H        0.28970    0.48060    0.42920    1.000
    C26      C        0.26786    0.74330    0.51880    1.000
    H22      H        0.28080    0.73670    0.44430    1.000
    C27      C        0.28930    0.73780    0.67050    1.000
    C28      C        0.16524    0.37850    0.16230    1.000
    C29      C        0.32317    0.57040    0.32720    1.000
    C30      C        0.34620    0.70790    0.83780    1.000
    H23      H        0.37100    0.69080    0.85270    1.000
    C31      C        0.46460    0.83870    0.08500    1.000
    H24      H        0.48830    0.81370    0.09050    1.000
    C32      C        0.43739    0.77770    0.12030    1.000
    H25      H        0.44350    0.71240    0.15100    1.000
    C33      C        0.45630    0.93790    0.04120    1.000
    C34      C        0.48310    0.00870    0.99880    1.000
    H26      H        0.47430    0.07200    0.96750    1.000
    C35      C        0.42140    0.96720    0.03390    1.000
    H27      H        0.41430    0.03200    0.00380    1.000
    C36      C        0.39603    0.90260    0.07030    1.000
    H28      H        0.37220    0.92630    0.06550    1.000
    Ni3      Ni       0.13788    0.21647    0.33437    1.000
    O9       O        0.17928    0.12860    0.28010    1.000
    O10      O        0.33349    0.83760    0.21580    1.000
    O11      O        0.14797    0.05630    0.07510    1.000
    N5       N        0.16842    0.22430    0.54510    1.000
    O12      O        0.35954    0.86330    0.44910    1.000
    N6       N        0.09674    0.30860    0.38810    1.000
    C37      C        0.22615    0.25450    0.70830    1.000
    H29      H        0.25100    0.27060    0.72040    1.000
    C38      C        0.20438    0.24710    0.57160    1.000
    H30      H        0.21520    0.25870    0.49220    1.000
    C39      C        0.27384    0.95710    0.24640    1.000
    H31      H        0.27420    0.92750    0.15680    1.000
    C40      C        0.30346    0.94530    0.35140    1.000
    H32      H        0.30480    0.98030    0.43810    1.000
    C41      C        0.17350    0.21500    0.80220    1.000
    H33      H        0.16180    0.20450    0.87970    1.000
    C42      C        0.24112    0.01180    0.25830    1.000
    H34      H        0.24160    0.04740    0.34390    1.000
    C43      C        0.21072    0.01500    0.15740    1.000
    H35      H        0.21030    0.98060    0.07080    1.000
    C44      C        0.23214    0.24330    0.98120    1.000
    H36      H        0.21920    0.23670    0.05570    1.000
    C45      C        0.21070    0.23780    0.82950    1.000
    C46      C        0.33476    0.87850    0.33770    1.000
    C47      C        0.17683    0.07040    0.17280    1.000
    C48      C        0.15380    0.20790    0.66220    1.000
    H37      H        0.12900    0.19080    0.64730    1.000
    C49      C        0.03540    0.33870    0.41500    1.000
    H38      H        0.01170    0.31370    0.40950    1.000
    C50      C        0.06261    0.27770    0.37970    1.000
    H39      H        0.05650    0.21240    0.34900    1.000
    C51      C        0.04370    0.43790    0.45880    1.000
    C52      C        0.01690    0.50870    0.50120    1.000
    H40      H        0.02570    0.57200    0.53250    1.000
    C53      C        0.07860    0.46720    0.46610    1.000
    H41      H        0.08570    0.53200    0.49620    1.000
    C54      C        0.10397    0.40260    0.42970    1.000
    H42      H        0.12780    0.42630    0.43450    1.000
    Ni4      Ni       0.63788    0.71647    0.33437    1.000
    O13      O        0.67928    0.62860    0.28010    1.000
    O14      O        0.83349    0.33760    0.21580    1.000
    O15      O        0.64797    0.55630    0.07510    1.000
    N7       N        0.66842    0.72430    0.54510    1.000
    O16      O        0.85954    0.36330    0.44910    1.000
    N8       N        0.59674    0.80860    0.38810    1.000
    C55      C        0.72615    0.75450    0.70830    1.000
    H43      H        0.75100    0.77060    0.72040    1.000
    C56      C        0.70438    0.74710    0.57160    1.000
    H44      H        0.71520    0.75870    0.49220    1.000
    C57      C        0.77384    0.45710    0.24640    1.000
    H45      H        0.77420    0.42750    0.15680    1.000
    C58      C        0.80346    0.44530    0.35140    1.000
    H46      H        0.80480    0.48030    0.43810    1.000
    C59      C        0.67350    0.71500    0.80220    1.000
    H47      H        0.66180    0.70450    0.87970    1.000
    C60      C        0.74112    0.51180    0.25830    1.000
    H48      H        0.74160    0.54740    0.34390    1.000
    C61      C        0.71072    0.51500    0.15740    1.000
    H49      H        0.71030    0.48060    0.07080    1.000
    C62      C        0.73214    0.74330    0.98120    1.000
    H50      H        0.71920    0.73670    0.05570    1.000
    C63      C        0.71070    0.73780    0.82950    1.000
    C64      C        0.83476    0.37850    0.33770    1.000
    C65      C        0.67683    0.57040    0.17280    1.000
    C66      C        0.65380    0.70790    0.66220    1.000
    H51      H        0.62900    0.69080    0.64730    1.000
    C67      C        0.53540    0.83870    0.41500    1.000
    H52      H        0.51170    0.81370    0.40950    1.000
    C68      C        0.56261    0.77770    0.37970    1.000
    H53      H        0.55650    0.71240    0.34900    1.000
    C69      C        0.54370    0.93790    0.45880    1.000
    C70      C        0.51690    0.00870    0.50120    1.000
    H54      H        0.52570    0.07200    0.53250    1.000
    C71      C        0.57860    0.96720    0.46610    1.000
    H55      H        0.58570    0.03200    0.49620    1.000
    C72      C        0.60397    0.90260    0.42970    1.000
    H56      H        0.62780    0.92630    0.43450    1.000
    Ni5      Ni       0.13788    0.78353    0.83437    1.000
    O17      O        0.17928    0.87140    0.78010    1.000
    O18      O        0.33349    0.16240    0.71580    1.000
    O19      O        0.14797    0.94370    0.57510    1.000
    N9       N        0.16842    0.77570    0.04510    1.000
    O20      O        0.35954    0.13670    0.94910    1.000
    N10      N        0.09674    0.69140    0.88810    1.000
    C73      C        0.22615    0.74550    0.20830    1.000
    H57      H        0.25100    0.72940    0.22040    1.000
    C74      C        0.20438    0.75290    0.07160    1.000
    H58      H        0.21520    0.74130    0.99220    1.000
    C75      C        0.27384    0.04290    0.74640    1.000
    H59      H        0.27420    0.07250    0.65680    1.000
    C76      C        0.30346    0.05470    0.85140    1.000
    H60      H        0.30480    0.01970    0.93810    1.000
    C77      C        0.17350    0.78500    0.30220    1.000
    H61      H        0.16180    0.79550    0.37970    1.000
    C78      C        0.24112    0.98820    0.75830    1.000
    H62      H        0.24160    0.95260    0.84390    1.000
    C79      C        0.21072    0.98500    0.65740    1.000
    H63      H        0.21030    0.01940    0.57080    1.000
    C80      C        0.23214    0.75670    0.48120    1.000
    H64      H        0.21920    0.76330    0.55570    1.000
    C81      C        0.21070    0.76220    0.32950    1.000
    C82      C        0.33476    0.12150    0.83770    1.000
    C83      C        0.17683    0.92960    0.67280    1.000
    C84      C        0.15380    0.79210    0.16220    1.000
    H65      H        0.12900    0.80920    0.14730    1.000
    C85      C        0.03540    0.66130    0.91500    1.000
    H66      H        0.01170    0.68630    0.90950    1.000
    C86      C        0.06261    0.72230    0.87970    1.000
    H67      H        0.05650    0.78760    0.84900    1.000
    C87      C        0.04370    0.56210    0.95880    1.000
    C88      C        0.01690    0.49130    0.00120    1.000
    H68      H        0.02570    0.42800    0.03250    1.000
    C89      C        0.07860    0.53280    0.96610    1.000
    H69      H        0.08570    0.46800    0.99620    1.000
    C90      C        0.10397    0.59740    0.92970    1.000
    H70      H        0.12780    0.57370    0.93450    1.000
    Ni6      Ni       0.63788    0.28353    0.83437    1.000
    O21      O        0.67928    0.37140    0.78010    1.000
    O22      O        0.83349    0.66240    0.71580    1.000
    O23      O        0.64797    0.44370    0.57510    1.000
    N11      N        0.66842    0.27570    0.04510    1.000
    O24      O        0.85954    0.63670    0.94910    1.000
    N12      N        0.59674    0.19140    0.88810    1.000
    C91      C        0.72615    0.24550    0.20830    1.000
    H71      H        0.75100    0.22940    0.22040    1.000
    C92      C        0.70438    0.25290    0.07160    1.000
    H72      H        0.71520    0.24130    0.99220    1.000
    C93      C        0.77384    0.54290    0.74640    1.000
    H73      H        0.77420    0.57250    0.65680    1.000
    C94      C        0.80346    0.55470    0.85140    1.000
    H74      H        0.80480    0.51970    0.93810    1.000
    C95      C        0.67350    0.28500    0.30220    1.000
    H75      H        0.66180    0.29550    0.37970    1.000
    C96      C        0.74112    0.48820    0.75830    1.000
    H76      H        0.74160    0.45260    0.84390    1.000
    C97      C        0.71072    0.48500    0.65740    1.000
    H77      H        0.71030    0.51940    0.57080    1.000
    C98      C        0.73214    0.25670    0.48120    1.000
    H78      H        0.71920    0.26330    0.55570    1.000
    C99      C        0.71070    0.26220    0.32950    1.000
    C100     C        0.83476    0.62150    0.83770    1.000
    C101     C        0.67683    0.42960    0.67280    1.000
    C102     C        0.65380    0.29210    0.16220    1.000
    H79      H        0.62900    0.30920    0.14730    1.000
    C103     C        0.53540    0.16130    0.91500    1.000
    H80      H        0.51170    0.18630    0.90950    1.000
    C104     C        0.56261    0.22230    0.87970    1.000
    H81      H        0.55650    0.28760    0.84900    1.000
    C105     C        0.54370    0.06210    0.95880    1.000
    C106     C        0.51690    0.99130    0.00120    1.000
    H82      H        0.52570    0.92800    0.03250    1.000
    C107     C        0.57860    0.03280    0.96610    1.000
    H83      H        0.58570    0.96800    0.99620    1.000
    C108     C        0.60397    0.09740    0.92970    1.000
    H84      H        0.62780    0.07370    0.93450    1.000
    Ni7      Ni       0.86212    0.78353    0.66563    1.000
    O25      O        0.82072    0.87140    0.71990    1.000
    O26      O        0.66651    0.16240    0.78420    1.000
    O27      O        0.85203    0.94370    0.92490    1.000
    N13      N        0.83158    0.77570    0.45490    1.000
    O28      O        0.64046    0.13670    0.55090    1.000
    N14      N        0.90326    0.69140    0.61190    1.000
    C109     C        0.77385    0.74550    0.29170    1.000
    H85      H        0.74900    0.72940    0.27960    1.000
    C110     C        0.79562    0.75290    0.42840    1.000
    H86      H        0.78480    0.74130    0.50780    1.000
    C111     C        0.72616    0.04290    0.75360    1.000
    H87      H        0.72580    0.07250    0.84320    1.000
    C112     C        0.69654    0.05470    0.64860    1.000
    H88      H        0.69520    0.01970    0.56190    1.000
    C113     C        0.82650    0.78500    0.19780    1.000
    H89      H        0.83820    0.79550    0.12030    1.000
    C114     C        0.75888    0.98820    0.74170    1.000
    H90      H        0.75840    0.95260    0.65610    1.000
    C115     C        0.78928    0.98500    0.84260    1.000
    H91      H        0.78970    0.01940    0.92920    1.000
    C116     C        0.76786    0.75670    0.01880    1.000
    H92      H        0.78080    0.76330    0.94430    1.000
    C117     C        0.78930    0.76220    0.17050    1.000
    C118     C        0.66524    0.12150    0.66230    1.000
    C119     C        0.82317    0.92960    0.82720    1.000
    C120     C        0.84620    0.79210    0.33780    1.000
    H93      H        0.87100    0.80920    0.35270    1.000
    C121     C        0.96460    0.66130    0.58500    1.000
    H94      H        0.98830    0.68630    0.59050    1.000
    C122     C        0.93739    0.72230    0.62030    1.000
    H95      H        0.94350    0.78760    0.65100    1.000
    C123     C        0.95630    0.56210    0.54120    1.000
    C124     C        0.98310    0.49130    0.49880    1.000
    H96      H        0.97430    0.42800    0.46750    1.000
    C125     C        0.92140    0.53280    0.53390    1.000
    H97      H        0.91430    0.46800    0.50380    1.000
    C126     C        0.89603    0.59740    0.57030    1.000
    H98      H        0.87220    0.57370    0.56550    1.000
    Ni8      Ni       0.36212    0.28353    0.66563    1.000
    O29      O        0.32072    0.37140    0.71990    1.000
    O30      O        0.16651    0.66240    0.78420    1.000
    O31      O        0.35203    0.44370    0.92490    1.000
    N15      N        0.33158    0.27570    0.45490    1.000
    O32      O        0.14046    0.63670    0.55090    1.000
    N16      N        0.40326    0.19140    0.61190    1.000
    C127     C        0.27385    0.24550    0.29170    1.000
    H99      H        0.24900    0.22940    0.27960    1.000
    C128     C        0.29562    0.25290    0.42840    1.000
    H100     H        0.28480    0.24130    0.50780    1.000
    C129     C        0.22616    0.54290    0.75360    1.000
    H101     H        0.22580    0.57250    0.84320    1.000
    C130     C        0.19654    0.55470    0.64860    1.000
    H102     H        0.19520    0.51970    0.56190    1.000
    C131     C        0.32650    0.28500    0.19780    1.000
    H103     H        0.33820    0.29550    0.12030    1.000
    C132     C        0.25888    0.48820    0.74170    1.000
    H104     H        0.25840    0.45260    0.65610    1.000
    C133     C        0.28928    0.48500    0.84260    1.000
    H105     H        0.28970    0.51940    0.92920    1.000
    C134     C        0.26786    0.25670    0.01880    1.000
    H106     H        0.28080    0.26330    0.94430    1.000
    C135     C        0.28930    0.26220    0.17050    1.000
    C136     C        0.16524    0.62150    0.66230    1.000
    C137     C        0.32317    0.42960    0.82720    1.000
    C138     C        0.34620    0.29210    0.33780    1.000
    H107     H        0.37100    0.30920    0.35270    1.000
    C139     C        0.46460    0.16130    0.58500    1.000
    H108     H        0.48830    0.18630    0.59050    1.000
    C140     C        0.43739    0.22230    0.62030    1.000
    H109     H        0.44350    0.28760    0.65100    1.000
    C141     C        0.45630    0.06210    0.54120    1.000
    C142     C        0.48310    0.99130    0.49880    1.000
    H110     H        0.47430    0.92800    0.46750    1.000
    C143     C        0.42140    0.03280    0.53390    1.000
    H111     H        0.41430    0.96800    0.50380    1.000
    C144     C        0.39603    0.09740    0.57030    1.000
    H112     H        0.37220    0.07370    0.56550    1.000
