data_functionalizedCrystal
_audit_creation_method	'EQeq! by Chris Wilmer'
_symmetry_space_group_name_H-M	'P1'
_symmetry_Int_Tables_number	1
_symmetry_cell_setting	triclinic
loop_
_symmetry_equiv_pos_as_xyz
  x,y,z
_cell_length_a	9.399
_cell_length_b	9.848
_cell_length_c	21.834
_cell_angle_alpha	90
_cell_angle_beta	102.09
_cell_angle_gamma	90
loop_
_atom_site_label
_atom_site_type_symbol
_atom_site_fract_x
_atom_site_fract_y
_atom_site_fract_z
_atom_site_charge
Mof_Cu	Cu	0.21073	0.13988	0.33778	0.826
Mof_N 	N 	0.3628	0.2686	0.3774	-0.258
Mof_N 	N 	0.1017	0.0181	0.3911	-0.245
Mof_N 	N 	0.1183	0.4089	0.7493	-0.253
Mof_N 	N 	0.7824	0.4833	0.535	-0.124
Mof_C 	C 	0.4322	0.2432	0.4374	0.062
Mof_H 	H 	0.4037	0.168	0.4576	-0.024
Mof_C 	C 	0.5437	0.3241	0.4698	-0.128
Mof_H 	H 	0.5855	0.3042	0.5113	0.076
Mof_C 	C 	0.5937	0.4356	0.4405	0.055
Mof_C 	C 	0.5218	0.4606	0.3785	-0.139
Mof_H 	H 	0.549	0.534	0.3568	0.066
Mof_C 	C 	0.4094	0.3753	0.3496	0.075
Mof_H 	H 	0.3641	0.3939	0.3083	-0.03
Mof_C 	C 	0.7197	0.5209	0.4747	0.059
Mof_C 	C 	0.8997	0.5577	0.5668	0.056
Mof_C 	C 	0.954	0.6664	0.5406	-0.126
Mof_H 	H 	0.0327	0.714	0.5637	0.061
Mof_C 	C 	0.8929	0.7065	0.48	0.043
Mof_C 	C 	0.7712	0.6343	0.447	-0.113
Mof_H 	H 	0.7252	0.6617	0.407	0.062
Mof_C 	C 	0.9591	0.8193	0.4508	0.057
Mof_C 	C 	0.1058	0.8523	0.4719	-0.136
Mof_H 	H 	0.1605	0.8083	0.5066	0.077
Mof_C 	C 	0.1706	0.9511	0.4408	0.078
Mof_H 	H 	0.2684	0.9709	0.4561	-0.026
Mof_C 	C 	0.9606	0.9919	0.3716	0.067
Mof_H 	H 	0.9086	0.0416	0.338	-0.024
Mof_C 	C 	0.8866	0.8936	0.3988	-0.134
Mof_H 	H 	0.7886	0.8772	0.3823	0.063
Mof_C 	C 	0.9734	0.5082	0.6308	0.045
Mof_C 	C 	0.9166	0.4023	0.6604	-0.134
Mof_H 	H 	0.8291	0.362	0.6413	0.075
Mof_C 	C 	0.9909	0.3567	0.7187	0.064
Mof_H 	H 	0.9502	0.2861	0.7375	-0.025
Mof_C 	C 	0.1723	0.5141	0.721	0.061
Mof_H 	H 	0.2597	0.5532	0.7412	-0.032
Mof_C 	C 	0.1033	0.5656	0.6637	-0.143
Mof_H 	H 	0.1435	0.6393	0.6468	0.065
Mof_Cu	Cu	0.21073	0.36012	0.83778	0.827
Mof_N 	N 	0.3628	0.2314	0.8774	-0.257
Mof_N 	N 	0.1017	0.4819	0.8911	-0.243
Mof_N 	N 	0.1183	0.0911	0.2493	-0.253
Mof_N 	N 	0.7824	0.0167	0.035	-0.123
Mof_C 	C 	0.4322	0.2568	0.9374	0.062
Mof_H 	H 	0.4037	0.332	0.9576	-0.024
Mof_C 	C 	0.5437	0.1759	0.9698	-0.129
Mof_H 	H 	0.5855	0.1958	0.0113	0.076
Mof_C 	C 	0.5937	0.0644	0.9405	0.056
Mof_C 	C 	0.5218	0.0394	0.8785	-0.139
Mof_H 	H 	0.549	0.966	0.8568	0.066
Mof_C 	C 	0.4094	0.1247	0.8496	0.075
Mof_H 	H 	0.3641	0.1061	0.8083	-0.03
Mof_C 	C 	0.7197	0.9791	0.9747	0.057
Mof_C 	C 	0.8997	0.9423	0.0668	0.055
Mof_C 	C 	0.954	0.8336	0.0406	-0.124
Mof_H 	H 	0.0327	0.786	0.0637	0.06
Mof_C 	C 	0.8929	0.7935	0.98	0.041
Mof_C 	C 	0.7712	0.8657	0.947	-0.112
Mof_H 	H 	0.7252	0.8383	0.907	0.061
Mof_C 	C 	0.9591	0.6807	0.9508	0.056
Mof_C 	C 	0.1058	0.6477	0.9719	-0.134
Mof_H 	H 	0.1605	0.6917	0.0066	0.076
Mof_C 	C 	0.1706	0.5489	0.9408	0.076
Mof_H 	H 	0.2684	0.5291	0.9561	-0.026
Mof_C 	C 	0.9606	0.5081	0.8716	0.068
Mof_H 	H 	0.9086	0.4584	0.838	-0.025
Mof_C 	C 	0.8866	0.6064	0.8988	-0.134
Mof_H 	H 	0.7886	0.6228	0.8823	0.063
Mof_C 	C 	0.9734	0.9918	0.1308	0.044
Mof_C 	C 	0.9166	0.0977	0.1604	-0.133
Mof_H 	H 	0.8291	0.138	0.1413	0.075
Mof_C 	C 	0.9909	0.1433	0.2187	0.065
Mof_H 	H 	0.9502	0.2139	0.2375	-0.025
Mof_C 	C 	0.1723	0.9859	0.221	0.061
Mof_H 	H 	0.2597	0.9468	0.2412	-0.032
Mof_C 	C 	0.1033	0.9344	0.1637	-0.143
Mof_H 	H 	0.1435	0.8607	0.1468	0.065
Mof_Cu	Cu	0.78927	0.63988	0.16222	0.827
Mof_N 	N 	0.6372	0.7686	0.1226	-0.257
Mof_N 	N 	0.8983	0.5181	0.1089	-0.243
Mof_N 	N 	0.8817	0.9089	0.7507	-0.253
Mof_N 	N 	0.2176	0.9833	0.965	-0.123
Mof_C 	C 	0.5678	0.7432	0.0626	0.062
Mof_H 	H 	0.5963	0.668	0.0424	-0.024
Mof_C 	C 	0.4563	0.8241	0.0302	-0.129
Mof_H 	H 	0.4145	0.8042	0.9887	0.076
Mof_C 	C 	0.4063	0.9356	0.0595	0.056
Mof_C 	C 	0.4782	0.9606	0.1215	-0.139
Mof_H 	H 	0.451	0.034	0.1432	0.066
Mof_C 	C 	0.5906	0.8753	0.1504	0.075
Mof_H 	H 	0.6359	0.8939	0.1917	-0.03
Mof_C 	C 	0.2803	0.0209	0.0253	0.057
Mof_C 	C 	0.1003	0.0577	0.9332	0.055
Mof_C 	C 	0.046	0.1664	0.9594	-0.124
Mof_H 	H 	0.9673	0.214	0.9363	0.06
Mof_C 	C 	0.1071	0.2065	0.02	0.041
Mof_C 	C 	0.2288	0.1343	0.053	-0.112
Mof_H 	H 	0.2748	0.1617	0.093	0.061
Mof_C 	C 	0.0409	0.3193	0.0492	0.056
Mof_C 	C 	0.8942	0.3523	0.0281	-0.134
Mof_H 	H 	0.8395	0.3083	0.9934	0.076
Mof_C 	C 	0.8294	0.4511	0.0592	0.076
Mof_H 	H 	0.7316	0.4709	0.0439	-0.026
Mof_C 	C 	0.0394	0.4919	0.1284	0.068
Mof_H 	H 	0.0914	0.5416	0.162	-0.025
Mof_C 	C 	0.1134	0.3936	0.1012	-0.134
Mof_H 	H 	0.2114	0.3772	0.1177	0.063
Mof_C 	C 	0.0266	0.0082	0.8692	0.044
Mof_C 	C 	0.0834	0.9023	0.8396	-0.133
Mof_H 	H 	0.1709	0.862	0.8587	0.075
Mof_C 	C 	0.0091	0.8567	0.7813	0.065
Mof_H 	H 	0.0498	0.7861	0.7625	-0.025
Mof_C 	C 	0.8277	0.0141	0.779	0.061
Mof_H 	H 	0.7403	0.0532	0.7588	-0.032
Mof_C 	C 	0.8967	0.0656	0.8363	-0.143
Mof_H 	H 	0.8565	0.1393	0.8532	0.065
Mof_Cu	Cu	0.78927	0.86012	0.66222	0.827
Mof_N 	N 	0.6372	0.7314	0.6226	-0.257
Mof_N 	N 	0.8983	0.9819	0.6089	-0.244
Mof_N 	N 	0.8817	0.5911	0.2507	-0.252
Mof_N 	N 	0.2176	0.5167	0.465	-0.124
Mof_C 	C 	0.5678	0.7568	0.5626	0.062
Mof_H 	H 	0.5963	0.832	0.5424	-0.024
Mof_C 	C 	0.4563	0.6759	0.5302	-0.128
Mof_H 	H 	0.4145	0.6958	0.4887	0.076
Mof_C 	C 	0.4063	0.5644	0.5595	0.055
Mof_C 	C 	0.4782	0.5394	0.6215	-0.139
Mof_H 	H 	0.451	0.466	0.6432	0.066
Mof_C 	C 	0.5906	0.6247	0.6504	0.075
Mof_H 	H 	0.6359	0.6061	0.6917	-0.03
Mof_C 	C 	0.2803	0.4791	0.5253	0.059
Mof_C 	C 	0.1003	0.4423	0.4332	0.056
Mof_C 	C 	0.046	0.3336	0.4594	-0.126
Mof_H 	H 	0.9673	0.286	0.4363	0.061
Mof_C 	C 	0.1071	0.2935	0.52	0.043
Mof_C 	C 	0.2288	0.3657	0.553	-0.113
Mof_H 	H 	0.2748	0.3383	0.593	0.062
Mof_C 	C 	0.0409	0.1807	0.5492	0.057
Mof_C 	C 	0.8942	0.1477	0.5281	-0.136
Mof_H 	H 	0.8395	0.1917	0.4934	0.077
Mof_C 	C 	0.8294	0.0489	0.5592	0.078
Mof_H 	H 	0.7316	0.0291	0.5439	-0.026
Mof_C 	C 	0.0394	0.0081	0.6284	0.067
Mof_H 	H 	0.0914	0.9584	0.662	-0.024
Mof_C 	C 	0.1134	0.1064	0.6012	-0.134
Mof_H 	H 	0.2114	0.1228	0.6177	0.063
Mof_C 	C 	0.0266	0.4918	0.3692	0.045
Mof_C 	C 	0.0834	0.5977	0.3396	-0.134
Mof_H 	H 	0.1709	0.638	0.3587	0.075
Mof_C 	C 	0.0091	0.6433	0.2813	0.064
Mof_H 	H 	0.0498	0.7139	0.2625	-0.025
Mof_C 	C 	0.8277	0.4859	0.279	0.061
Mof_H 	H 	0.7403	0.4468	0.2588	-0.032
Mof_C 	C 	0.8967	0.4344	0.3363	-0.143
Mof_H 	H 	0.8565	0.3607	0.3532	0.065
_end
