data_functionalizedCrystal
_audit_creation_method	'EQeq! by Chris Wilmer'
_symmetry_space_group_name_H-M	'P1'
_symmetry_Int_Tables_number	1
_symmetry_cell_setting	triclinic
loop_
_symmetry_equiv_pos_as_xyz
  x,y,z
_cell_length_a	10.5684
_cell_length_b	10.5684
_cell_length_c	10.9267
_cell_angle_alpha	78.7836
_cell_angle_beta	62.4925
_cell_angle_gamma	108.745
loop_
_atom_site_label
_atom_site_type_symbol
_atom_site_fract_x
_atom_site_fract_y
_atom_site_fract_z
_atom_site_charge
Mof_Dy	Dy	0.24471	0.43131	0.62013	1.807
Mof_Dy	Dy	0.55144	0.86484	0.87987	1.792
Mof_Dy	Dy	0.75529	0.56869	0.37987	1.806
Mof_Dy	Dy	0.44856	0.13516	0.12013	1.791
Mof_H 	H 	0.9639	0.8863	0.8148	0.235
Mof_H 	H 	0.1048	0.9896	0.6464	0.226
Mof_H 	H 	0.7331	0.8908	0.2171	0.217
Mof_H 	H 	0.2011	0.7787	0.6852	0.24
Mof_H 	H 	0.136	0.7512	0.8536	0.236
Mof_H 	H 	0.6079	0.9502	0.2829	0.217
Mof_H 	H 	0.0361	0.1137	0.1852	0.235
Mof_H 	H 	0.8952	0.0104	0.3536	0.226
Mof_H 	H 	0.2669	0.1092	0.7829	0.217
Mof_H 	H 	0.7989	0.2213	0.3148	0.24
Mof_H 	H 	0.864	0.2488	0.1464	0.236
Mof_H 	H 	0.3921	0.0498	0.7171	0.217
Mof_C 	C 	0.9536	0.0723	0.7419	0.656
Mof_C 	C 	0.9892	0.948	0.7198	-0.742
Mof_C 	C 	0.9031	0.8503	0.6686	0.574
Mof_C 	C 	0.499	0.7239	0.3757	0.558
Mof_C 	C 	0.3142	0.6955	0.7581	0.668
Mof_C 	C 	0.1678	0.709	0.7802	-0.764
Mof_C 	C 	0.0189	0.5717	0.8314	0.571
Mof_C 	C 	0.5996	0.8747	0.1243	0.558
Mof_C 	C 	0.0464	0.9277	0.2581	0.656
Mof_C 	C 	0.0108	0.052	0.2802	-0.742
Mof_C 	C 	0.0969	0.1497	0.3314	0.574
Mof_C 	C 	0.501	0.2761	0.6243	0.558
Mof_C 	C 	0.6858	0.3045	0.2419	0.668
Mof_C 	C 	0.8322	0.291	0.2198	-0.764
Mof_C 	C 	0.9811	0.4283	0.1686	0.571
Mof_C 	C 	0.4004	0.1253	0.8757	0.558
Mof_C 	C 	0.6247	0.8747	0.25	-0.702
Mof_C 	C 	0.3753	0.1253	0.75	-0.702
Mof_O 	O 	0.0677	0.1843	0.7144	-0.607
Mof_O 	O 	0.8138	0.0574	0.7918	-0.535
Mof_O 	O 	0.9838	0.8127	0.5723	-0.378
Mof_O 	O 	0.75397	0.80887	0.7259	-0.535
Mof_O 	O 	0.35233	0.69157	0.4409	-0.497
Mof_O 	O 	0.5421	0.6315	0.4082	-0.621
Mof_O 	O 	0.3987	0.7821	0.7856	-0.613
Mof_O 	O 	0.3492	0.6056	0.7082	-0.54
Mof_O 	O 	0.885	0.5561	0.9277	-0.375
Mof_O 	O 	0.03477	0.47987	0.7741	-0.537
Mof_O 	O 	0.63247	0.79323	0.0591	-0.493
Mof_O 	O 	0.5397	0.9503	0.0918	-0.615
Mof_O 	O 	0.9323	0.8157	0.2856	-0.607
Mof_O 	O 	0.1862	0.9426	0.2082	-0.535
Mof_O 	O 	0.0162	0.1873	0.4277	-0.378
Mof_O 	O 	0.24603	0.19113	0.2741	-0.535
Mof_O 	O 	0.64767	0.30843	0.5591	-0.497
Mof_O 	O 	0.4579	0.3685	0.5918	-0.621
Mof_O 	O 	0.6013	0.2179	0.2144	-0.613
Mof_O 	O 	0.6508	0.3944	0.2918	-0.54
Mof_O 	O 	0.115	0.4439	0.0723	-0.375
Mof_O 	O 	0.96523	0.52013	0.2259	-0.537
Mof_O 	O 	0.36753	0.20677	0.9409	-0.493
Mof_O 	O 	0.4603	0.0497	0.9082	-0.615
_end
