data_functionalizedCrystal
_audit_creation_method	'EQeq! by Chris Wilmer'
_symmetry_space_group_name_H-M	'P1'
_symmetry_Int_Tables_number	1
_symmetry_cell_setting	triclinic
loop_
_symmetry_equiv_pos_as_xyz
  x,y,z
_cell_length_a	10.8346
_cell_length_b	13.8427
_cell_length_c	27.9882
_cell_angle_alpha	97.554
_cell_angle_beta	90
_cell_angle_gamma	90
loop_
_atom_site_label
_atom_site_type_symbol
_atom_site_fract_x
_atom_site_fract_y
_atom_site_fract_z
_atom_site_charge
Mof_U 	U 	0.87917	0.59061	0.52405	0.039
Mof_U 	U 	0.88671	0.55329	0.38871	0.037
Mof_U 	U 	0.37917	0.90939	0.97595	0.039
Mof_U 	U 	0.38671	0.94671	0.11129	0.037
Mof_U 	U 	0.12083	0.40939	0.47595	0.039
Mof_U 	U 	0.11329	0.44671	0.61129	0.037
Mof_U 	U 	0.62083	0.09061	0.02405	0.039
Mof_U 	U 	0.61329	0.05329	0.88871	0.037
Mof_H 	H 	0.7148	0.6059	0.4525	0.226
Mof_H 	H 	0.8587	0.2285	0.7877	0.192
Mof_H 	H 	0.8071	0.1489	0.7474	0.176
Mof_H 	H 	0.6501	0.2988	0.7925	-0.016
Mof_H 	H 	0.6201	0.2296	0.745	-0.018
Mof_H 	H 	0.7989	0.3801	0.7516	0.148
Mof_H 	H 	0.7738	0.3093	0.7042	0.138
Mof_H 	H 	0.5935	0.4406	0.7476	-0.007
Mof_H 	H 	0.5763	0.3743	0.6983	-0.007
Mof_H 	H 	0.6171	0.5292	0.6817	0.142
Mof_H 	H 	0.7303	0.464	0.664	0.152
Mof_H 	H 	0.73	0.5907	0.7516	-0.025
Mof_H 	H 	0.8443	0.5293	0.7309	-0.013
Mof_H 	H 	0.8626	0.6924	0.715	0.181
Mof_H 	H 	0.7384	0.6821	0.6859	0.18
Mof_H 	H 	0.631	0.8213	0.6844	0.016
Mof_H 	H 	0.4824	0.7103	0.658	0.021
Mof_H 	H 	0.5482	0.5949	0.5399	0.073
Mof_H 	H 	0.4394	0.5914	0.5767	0.061
Mof_H 	H 	0.2528	0.7179	0.6279	0.057
Mof_H 	H 	0.2015	0.8246	0.6348	0.055
Mof_H 	H 	0.2263	0.6328	0.5423	0.067
Mof_H 	H 	0.1556	0.6737	0.4711	0.067
Mof_H 	H 	0.247	0.6746	0.3918	0.045
Mof_H 	H 	0.3905	0.6812	0.3869	0.052
Mof_H 	H 	0.0321	0.9007	0.4874	0.076
Mof_H 	H 	0.0337	0.8027	0.4524	0.066
Mof_H 	H 	0.1269	0.8147	0.3684	0.025
Mof_H 	H 	0.1653	0.9492	0.3301	0.017
Mof_H 	H 	0.6314	0.9976	0.7119	0.049
Mof_H 	H 	0.512	0.054	0.7006	0.052
Mof_H 	H 	0.8374	0.8699	0.6479	0.038
Mof_H 	H 	0.856	0.8345	0.5929	0.074
Mof_H 	H 	0.2148	0.8941	0.0475	0.225
Mof_H 	H 	0.3587	0.2715	0.7123	0.191
Mof_H 	H 	0.3071	0.3511	0.7526	0.175
Mof_H 	H 	0.1501	0.2012	0.7075	-0.018
Mof_H 	H 	0.1201	0.2704	0.755	-0.018
Mof_H 	H 	0.2989	0.1199	0.7484	0.149
Mof_H 	H 	0.2738	0.1907	0.7958	0.139
Mof_H 	H 	0.0935	0.0594	0.7524	-0.008
Mof_H 	H 	0.0763	0.1257	0.8017	-0.008
Mof_H 	H 	0.1171	0.9708	0.8183	0.144
Mof_H 	H 	0.2303	0.036	0.836	0.154
Mof_H 	H 	0.23	0.9093	0.7484	-0.026
Mof_H 	H 	0.3443	0.9707	0.7691	-0.014
Mof_H 	H 	0.3626	0.8076	0.785	0.182
Mof_H 	H 	0.2384	0.8179	0.8141	0.18
Mof_H 	H 	0.131	0.6787	0.8156	0.016
Mof_H 	H 	0.9824	0.7897	0.842	0.021
Mof_H 	H 	0.0482	0.9051	0.9601	0.073
Mof_H 	H 	0.9394	0.9086	0.9233	0.061
Mof_H 	H 	0.7528	0.7821	0.8721	0.057
Mof_H 	H 	0.7015	0.6754	0.8652	0.055
Mof_H 	H 	0.7263	0.8672	0.9577	0.067
Mof_H 	H 	0.6556	0.8263	0.0289	0.067
Mof_H 	H 	0.747	0.8254	0.1082	0.045
Mof_H 	H 	0.8905	0.8188	0.1131	0.052
Mof_H 	H 	0.5321	0.5993	0.0126	0.076
Mof_H 	H 	0.5337	0.6973	0.0476	0.065
Mof_H 	H 	0.6269	0.6853	0.1316	0.024
Mof_H 	H 	0.6653	0.5508	0.1699	0.017
Mof_H 	H 	0.1314	0.5024	0.7881	0.049
Mof_H 	H 	0.012	0.446	0.7994	0.052
Mof_H 	H 	0.3374	0.6301	0.8521	0.038
Mof_H 	H 	0.356	0.6655	0.9071	0.074
Mof_H 	H 	0.2852	0.3941	0.5475	0.225
Mof_H 	H 	0.1413	0.7715	0.2123	0.191
Mof_H 	H 	0.1929	0.8511	0.2526	0.175
Mof_H 	H 	0.3499	0.7012	0.2075	-0.017
Mof_H 	H 	0.3799	0.7704	0.255	-0.018
Mof_H 	H 	0.2011	0.6199	0.2484	0.148
Mof_H 	H 	0.2262	0.6907	0.2958	0.138
Mof_H 	H 	0.4065	0.5594	0.2524	-0.007
Mof_H 	H 	0.4237	0.6257	0.3017	-0.007
Mof_H 	H 	0.3829	0.4708	0.3183	0.142
Mof_H 	H 	0.2697	0.536	0.336	0.152
Mof_H 	H 	0.27	0.4093	0.2484	-0.025
Mof_H 	H 	0.1557	0.4707	0.2691	-0.013
Mof_H 	H 	0.1374	0.3076	0.285	0.181
Mof_H 	H 	0.2616	0.3179	0.3141	0.18
Mof_H 	H 	0.369	0.1787	0.3156	0.016
Mof_H 	H 	0.5176	0.2897	0.342	0.021
Mof_H 	H 	0.4518	0.4051	0.4601	0.073
Mof_H 	H 	0.5606	0.4086	0.4233	0.061
Mof_H 	H 	0.7472	0.2821	0.3721	0.057
Mof_H 	H 	0.7985	0.1754	0.3652	0.055
Mof_H 	H 	0.7737	0.3672	0.4577	0.067
Mof_H 	H 	0.8444	0.3263	0.5289	0.067
Mof_H 	H 	0.753	0.3254	0.6082	0.045
Mof_H 	H 	0.6095	0.3188	0.6131	0.052
Mof_H 	H 	0.9679	0.0993	0.5126	0.076
Mof_H 	H 	0.9663	0.1973	0.5476	0.066
Mof_H 	H 	0.8731	0.1853	0.6316	0.025
Mof_H 	H 	0.8347	0.0508	0.6699	0.017
Mof_H 	H 	0.3686	0.0024	0.2881	0.049
Mof_H 	H 	0.488	0.946	0.2994	0.052
Mof_H 	H 	0.1626	0.1301	0.3521	0.038
Mof_H 	H 	0.144	0.1655	0.4071	0.074
Mof_H 	H 	0.7852	0.1059	0.9525	0.225
Mof_H 	H 	0.6413	0.7285	0.2877	0.191
Mof_H 	H 	0.6929	0.6489	0.2474	0.175
Mof_H 	H 	0.8499	0.7988	0.2925	-0.018
Mof_H 	H 	0.8799	0.7296	0.245	-0.018
Mof_H 	H 	0.7011	0.8801	0.2516	0.149
Mof_H 	H 	0.7262	0.8093	0.2042	0.139
Mof_H 	H 	0.9065	0.9406	0.2476	-0.008
Mof_H 	H 	0.9237	0.8743	0.1983	-0.008
Mof_H 	H 	0.8829	0.0292	0.1817	0.144
Mof_H 	H 	0.7697	0.964	0.164	0.154
Mof_H 	H 	0.77	0.0907	0.2516	-0.026
Mof_H 	H 	0.6557	0.0293	0.2309	-0.014
Mof_H 	H 	0.6374	0.1924	0.215	0.182
Mof_H 	H 	0.7616	0.1821	0.1859	0.18
Mof_H 	H 	0.869	0.3213	0.1844	0.016
Mof_H 	H 	0.0176	0.2103	0.158	0.021
Mof_H 	H 	0.9518	0.0949	0.0399	0.073
Mof_H 	H 	0.0606	0.0914	0.0767	0.061
Mof_H 	H 	0.2472	0.2179	0.1279	0.057
Mof_H 	H 	0.2985	0.3246	0.1348	0.055
Mof_H 	H 	0.2737	0.1328	0.0423	0.067
Mof_H 	H 	0.3444	0.1737	0.9711	0.067
Mof_H 	H 	0.253	0.1746	0.8918	0.045
Mof_H 	H 	0.1095	0.1812	0.8869	0.052
Mof_H 	H 	0.4679	0.4007	0.9874	0.076
Mof_H 	H 	0.4663	0.3027	0.9524	0.065
Mof_H 	H 	0.3731	0.3147	0.8684	0.024
Mof_H 	H 	0.3347	0.4492	0.8301	0.017
Mof_H 	H 	0.8686	0.4976	0.2119	0.049
Mof_H 	H 	0.988	0.554	0.2006	0.052
Mof_H 	H 	0.6626	0.3699	0.1479	0.038
Mof_H 	H 	0.644	0.3345	0.0929	0.074
Mof_C 	C 	0.7353	0.1378	0.8135	0.4
Mof_C 	C 	0.7851	0.1933	0.7759	-0.465
Mof_C 	C 	0.6856	0.2658	0.763	0.184
Mof_C 	C 	0.7356	0.3423	0.7332	-0.34
Mof_C 	C 	0.6362	0.4117	0.7188	0.139
Mof_C 	C 	0.6862	0.4931	0.6924	-0.35
Mof_C 	C 	0.7716	0.5638	0.7221	0.204
Mof_C 	C 	0.8111	0.6471	0.6944	-0.477
Mof_C 	C 	0.8785	0.6116	0.6509	0.396
Mof_C 	C 	0.6503	0.7518	0.5787	0.262
Mof_C 	C 	0.5951	0.8345	0.6538	0.058
Mof_C 	C 	0.4934	0.7587	0.6358	0.057
Mof_C 	C 	0.4079	0.9157	0.6498	0.264
Mof_C 	C 	0.4839	0.6333	0.5575	0.01
Mof_C 	C 	0.2639	0.7823	0.6184	0.026
Mof_C 	C 	0.4299	0.6752	0.4762	0.27
Mof_C 	C 	0.2691	0.69	0.5332	0.058
Mof_C 	C 	0.2206	0.7182	0.4849	0.056
Mof_C 	C 	0.177	0.8438	0.5466	0.28
Mof_C 	C 	0.319	0.7127	0.403	0.022
Mof_C 	C 	0.0851	0.8554	0.4675	0.009
Mof_C 	C 	0.3962	0.8475	0.3625	0.256
Mof_C 	C 	0.1881	0.8583	0.3857	0.061
Mof_C 	C 	0.2206	0.9455	0.3575	0.058
Mof_C 	C 	0.1623	0.0039	0.4365	0.272
Mof_C 	C 	0.5801	0.0154	0.6861	0.023
Mof_C 	C 	0.8011	0.8701	0.6163	0.025
Mof_C 	C 	0.2353	0.3622	0.6865	0.4
Mof_C 	C 	0.2851	0.3067	0.7241	-0.465
Mof_C 	C 	0.1856	0.2342	0.737	0.185
Mof_C 	C 	0.2356	0.1577	0.7668	-0.342
Mof_C 	C 	0.1362	0.0883	0.7812	0.142
Mof_C 	C 	0.1862	0.0069	0.8076	-0.355
Mof_C 	C 	0.2716	0.9362	0.7779	0.208
Mof_C 	C 	0.3111	0.8529	0.8056	-0.479
Mof_C 	C 	0.3785	0.8884	0.8491	0.397
Mof_C 	C 	0.1503	0.7482	0.9213	0.262
Mof_C 	C 	0.0951	0.6655	0.8462	0.058
Mof_C 	C 	0.9934	0.7413	0.8642	0.057
Mof_C 	C 	0.9079	0.5843	0.8502	0.264
Mof_C 	C 	0.9839	0.8667	0.9425	0.009
Mof_C 	C 	0.7639	0.7177	0.8816	0.026
Mof_C 	C 	0.9299	0.8248	0.0238	0.269
Mof_C 	C 	0.7691	0.81	0.9668	0.058
Mof_C 	C 	0.7206	0.7818	0.0151	0.056
Mof_C 	C 	0.677	0.6562	0.9534	0.28
Mof_C 	C 	0.819	0.7873	0.097	0.022
Mof_C 	C 	0.5851	0.6446	0.0325	0.009
Mof_C 	C 	0.8962	0.6525	0.1375	0.255
Mof_C 	C 	0.6881	0.6417	0.1143	0.061
Mof_C 	C 	0.7206	0.5545	0.1425	0.057
Mof_C 	C 	0.6623	0.4961	0.0635	0.272
Mof_C 	C 	0.0801	0.4846	0.8139	0.022
Mof_C 	C 	0.3011	0.6299	0.8837	0.025
Mof_C 	C 	0.2647	0.8622	0.1865	0.4
Mof_C 	C 	0.2149	0.8067	0.2241	-0.465
Mof_C 	C 	0.3144	0.7342	0.237	0.184
Mof_C 	C 	0.2644	0.6577	0.2668	-0.34
Mof_C 	C 	0.3638	0.5883	0.2812	0.139
Mof_C 	C 	0.3138	0.5069	0.3076	-0.35
Mof_C 	C 	0.2284	0.4362	0.2779	0.204
Mof_C 	C 	0.1889	0.3529	0.3056	-0.477
Mof_C 	C 	0.1215	0.3884	0.3491	0.396
Mof_C 	C 	0.3497	0.2482	0.4213	0.262
Mof_C 	C 	0.4049	0.1655	0.3462	0.058
Mof_C 	C 	0.5066	0.2413	0.3642	0.057
Mof_C 	C 	0.5921	0.0843	0.3502	0.264
Mof_C 	C 	0.5161	0.3667	0.4425	0.01
Mof_C 	C 	0.7361	0.2177	0.3816	0.026
Mof_C 	C 	0.5701	0.3248	0.5238	0.27
Mof_C 	C 	0.7309	0.31	0.4668	0.058
Mof_C 	C 	0.7794	0.2818	0.5151	0.056
Mof_C 	C 	0.823	0.1562	0.4534	0.28
Mof_C 	C 	0.681	0.2873	0.597	0.022
Mof_C 	C 	0.9149	0.1446	0.5325	0.009
Mof_C 	C 	0.6038	0.1525	0.6375	0.256
Mof_C 	C 	0.8119	0.1417	0.6143	0.061
Mof_C 	C 	0.7794	0.0545	0.6425	0.058
Mof_C 	C 	0.8377	0.9961	0.5635	0.272
Mof_C 	C 	0.4199	0.9846	0.3139	0.023
Mof_C 	C 	0.1989	0.1299	0.3837	0.025
Mof_C 	C 	0.7647	0.6378	0.3135	0.4
Mof_C 	C 	0.7149	0.6933	0.2759	-0.465
Mof_C 	C 	0.8144	0.7658	0.263	0.185
Mof_C 	C 	0.7644	0.8423	0.2332	-0.342
Mof_C 	C 	0.8638	0.9117	0.2188	0.142
Mof_C 	C 	0.8138	0.9931	0.1924	-0.355
Mof_C 	C 	0.7284	0.0638	0.2221	0.208
Mof_C 	C 	0.6889	0.1471	0.1944	-0.479
Mof_C 	C 	0.6215	0.1116	0.1509	0.397
Mof_C 	C 	0.8497	0.2518	0.0787	0.262
Mof_C 	C 	0.9049	0.3345	0.1538	0.058
Mof_C 	C 	0.0066	0.2587	0.1358	0.057
Mof_C 	C 	0.0921	0.4157	0.1498	0.264
Mof_C 	C 	0.0161	0.1333	0.0575	0.009
Mof_C 	C 	0.2361	0.2823	0.1184	0.026
Mof_C 	C 	0.0701	0.1752	0.9762	0.269
Mof_C 	C 	0.2309	0.19	0.0332	0.058
Mof_C 	C 	0.2794	0.2182	0.9849	0.056
Mof_C 	C 	0.323	0.3438	0.0466	0.28
Mof_C 	C 	0.181	0.2127	0.903	0.022
Mof_C 	C 	0.4149	0.3554	0.9675	0.009
Mof_C 	C 	0.1038	0.3475	0.8625	0.255
Mof_C 	C 	0.3119	0.3583	0.8857	0.061
Mof_C 	C 	0.2794	0.4455	0.8575	0.057
Mof_C 	C 	0.3377	0.5039	0.9365	0.272
Mof_C 	C 	0.9199	0.5154	0.1861	0.022
Mof_C 	C 	0.6989	0.3701	0.1163	0.025
Mof_N 	N 	0.6851	0.8211	0.6149	-0.146
Mof_N 	N 	0.5402	0.7147	0.5894	-0.143
Mof_N 	N 	0.3853	0.8187	0.634	-0.147
Mof_N 	N 	0.5307	0.9265	0.6589	-0.147
Mof_N 	N 	0.3987	0.6708	0.5233	-0.139
Mof_N 	N 	0.332	0.7111	0.4545	-0.144
Mof_N 	N 	0.1743	0.8163	0.4979	-0.138
Mof_N 	N 	0.2455	0.7768	0.5672	-0.141
Mof_N 	N 	0.3065	0.8107	0.3883	-0.15
Mof_N 	N 	0.3473	0.9247	0.3425	-0.148
Mof_N 	N 	0.2083	0.0284	0.394	-0.145
Mof_N 	N 	0.1409	0.9056	0.4299	-0.146
Mof_N 	N 	0.1851	0.6789	0.8851	-0.146
Mof_N 	N 	0.0402	0.7853	0.9106	-0.143
Mof_N 	N 	0.8853	0.6813	0.866	-0.147
Mof_N 	N 	0.0307	0.5735	0.8411	-0.147
Mof_N 	N 	0.8987	0.8292	0.9767	-0.138
Mof_N 	N 	0.832	0.7889	0.0455	-0.144
Mof_N 	N 	0.6743	0.6837	0.0021	-0.139
Mof_N 	N 	0.7455	0.7232	0.9328	-0.141
Mof_N 	N 	0.8065	0.6893	0.1117	-0.15
Mof_N 	N 	0.8473	0.5753	0.1575	-0.148
Mof_N 	N 	0.7083	0.4716	0.106	-0.145
Mof_N 	N 	0.6409	0.5944	0.0701	-0.147
Mof_N 	N 	0.3149	0.1789	0.3851	-0.146
Mof_N 	N 	0.4598	0.2853	0.4106	-0.143
Mof_N 	N 	0.6147	0.1813	0.366	-0.147
Mof_N 	N 	0.4693	0.0735	0.3411	-0.147
Mof_N 	N 	0.6013	0.3292	0.4767	-0.139
Mof_N 	N 	0.668	0.2889	0.5455	-0.144
Mof_N 	N 	0.8257	0.1837	0.5021	-0.138
Mof_N 	N 	0.7545	0.2232	0.4328	-0.141
Mof_N 	N 	0.6935	0.1893	0.6117	-0.15
Mof_N 	N 	0.6527	0.0753	0.6575	-0.148
Mof_N 	N 	0.7917	0.9716	0.606	-0.145
Mof_N 	N 	0.8591	0.0944	0.5701	-0.146
Mof_N 	N 	0.8149	0.3211	0.1149	-0.146
Mof_N 	N 	0.9598	0.2147	0.0894	-0.143
Mof_N 	N 	0.1147	0.3187	0.134	-0.147
Mof_N 	N 	0.9693	0.4265	0.1589	-0.147
Mof_N 	N 	0.1013	0.1708	0.0233	-0.138
Mof_N 	N 	0.168	0.2111	0.9545	-0.144
Mof_N 	N 	0.3257	0.3163	0.9979	-0.139
Mof_N 	N 	0.2545	0.2768	0.0672	-0.141
Mof_N 	N 	0.1935	0.3107	0.8883	-0.15
Mof_N 	N 	0.1527	0.4247	0.8425	-0.148
Mof_N 	N 	0.2917	0.5284	0.894	-0.145
Mof_N 	N 	0.3591	0.4056	0.9299	-0.147
Mof_O 	O 	0.7626	0.5005	0.5256	-0.095
Mof_O 	O 	0.9855	0.689	0.5261	-0.079
Mof_O 	O 	0.7696	0.4604	0.3853	-0.095
Mof_O 	O 	0.9975	0.648	0.388	-0.099
Mof_O 	O 	0.9713	0.5074	0.4536	-0.04
Mof_O 	O 	0.7845	0.6375	0.4541	-0.226
Mof_O 	O 	0.7661	0.1587	0.8564	-0.242
Mof_O 	O 	0.66	0.0663	0.8016	-0.228
Mof_O 	O 	0.8479	0.6261	0.6101	-0.23
Mof_O 	O 	0.9809	0.5631	0.6559	-0.201
Mof_O 	O 	0.7156	0.7227	0.5432	-0.184
Mof_O 	O 	0.3293	0.9797	0.6564	-0.243
Mof_O 	O 	0.5279	0.6517	0.4563	-0.236
Mof_O 	O 	0.1292	0.9163	0.5676	-0.236
Mof_O 	O 	0.5028	0.8165	0.3567	-0.241
Mof_O 	O 	0.1438	0.0594	0.4731	-0.237
Mof_O 	O 	0.2626	0.9995	0.9744	-0.094
Mof_O 	O 	0.4855	0.811	0.9739	-0.079
Mof_O 	O 	0.2696	0.0396	0.1147	-0.095
Mof_O 	O 	0.4975	0.852	0.112	-0.099
Mof_O 	O 	0.4713	0.9926	0.0464	-0.04
Mof_O 	O 	0.2845	0.8625	0.0459	-0.226
Mof_O 	O 	0.2661	0.3413	0.6436	-0.242
Mof_O 	O 	0.16	0.4337	0.6984	-0.228
Mof_O 	O 	0.3479	0.8739	0.8899	-0.23
Mof_O 	O 	0.4809	0.9369	0.8441	-0.202
Mof_O 	O 	0.2156	0.7773	0.9568	-0.184
Mof_O 	O 	0.8293	0.5203	0.8436	-0.243
Mof_O 	O 	0.0279	0.8483	0.0437	-0.235
Mof_O 	O 	0.6292	0.5837	0.9324	-0.236
Mof_O 	O 	0.0028	0.6835	0.1433	-0.24
Mof_O 	O 	0.6438	0.4406	0.0269	-0.237
Mof_O 	O 	0.2374	0.4995	0.4744	-0.095
Mof_O 	O 	0.0145	0.311	0.4739	-0.079
Mof_O 	O 	0.2304	0.5396	0.6147	-0.095
Mof_O 	O 	0.0025	0.352	0.612	-0.099
Mof_O 	O 	0.0287	0.4926	0.5464	-0.04
Mof_O 	O 	0.2155	0.3625	0.5459	-0.226
Mof_O 	O 	0.2339	0.8413	0.1436	-0.242
Mof_O 	O 	0.34	0.9337	0.1984	-0.228
Mof_O 	O 	0.1521	0.3739	0.3899	-0.23
Mof_O 	O 	0.0191	0.4369	0.3441	-0.201
Mof_O 	O 	0.2844	0.2773	0.4568	-0.184
Mof_O 	O 	0.6707	0.0203	0.3436	-0.243
Mof_O 	O 	0.4721	0.3483	0.5437	-0.236
Mof_O 	O 	0.8708	0.0837	0.4324	-0.236
Mof_O 	O 	0.4972	0.1835	0.6433	-0.241
Mof_O 	O 	0.8562	0.9406	0.5269	-0.237
Mof_O 	O 	0.7374	0.0005	0.0256	-0.094
Mof_O 	O 	0.5145	0.189	0.0261	-0.079
Mof_O 	O 	0.7304	0.9604	0.8853	-0.095
Mof_O 	O 	0.5025	0.148	0.888	-0.099
Mof_O 	O 	0.5287	0.0074	0.9536	-0.04
Mof_O 	O 	0.7155	0.1375	0.9541	-0.226
Mof_O 	O 	0.7339	0.6587	0.3564	-0.242
Mof_O 	O 	0.84	0.5663	0.3016	-0.228
Mof_O 	O 	0.6521	0.1261	0.1101	-0.23
Mof_O 	O 	0.5191	0.0631	0.1559	-0.202
Mof_O 	O 	0.7844	0.2227	0.0432	-0.184
Mof_O 	O 	0.1707	0.4797	0.1564	-0.243
Mof_O 	O 	0.9721	0.1517	0.9563	-0.235
Mof_O 	O 	0.3708	0.4163	0.0676	-0.236
Mof_O 	O 	0.9972	0.3165	0.8567	-0.24
Mof_O 	O 	0.3562	0.5594	0.9731	-0.237
Mof_H 	H 	0.7139	0.7763	0.4533	0.154
Mof_H 	H 	0.6388	0.7842	0.411	0.149
Mof_H 	H 	0.6466	0.9212	0.4903	0.174
Mof_H 	H 	0.5336	0.853	0.4755	0.167
Mof_H 	H 	0.5701	0.9343	0.4441	0.168
Mof_H 	H 	0.7532	0.9122	0.394	0.204
Mof_H 	H 	0.8311	0.8165	0.3927	0.197
Mof_H 	H 	0.8374	0.8963	0.4378	0.201
Mof_C 	C 	0.6013	0.8878	0.4636	-0.386
Mof_C 	C 	0.7848	0.8647	0.4129	-0.439
Mof_N 	N 	0.6834	0.8185	0.4345	-0.133
Mof_H 	H 	0.2139	0.7237	0.0467	0.154
Mof_H 	H 	0.1388	0.7158	0.089	0.149
Mof_H 	H 	0.1466	0.5788	0.0097	0.174
Mof_H 	H 	0.0336	0.647	0.0245	0.167
Mof_H 	H 	0.0701	0.5657	0.0559	0.168
Mof_H 	H 	0.2532	0.5878	0.106	0.205
Mof_H 	H 	0.3311	0.6835	0.1073	0.197
Mof_H 	H 	0.3374	0.6037	0.0622	0.202
Mof_C 	C 	0.1013	0.6122	0.0364	-0.386
Mof_C 	C 	0.2848	0.6353	0.0871	-0.439
Mof_N 	N 	0.1834	0.6815	0.0655	-0.133
Mof_H 	H 	0.2861	0.2237	0.5467	0.154
Mof_H 	H 	0.3612	0.2158	0.589	0.149
Mof_H 	H 	0.3534	0.0788	0.5097	0.174
Mof_H 	H 	0.4664	0.147	0.5245	0.167
Mof_H 	H 	0.4299	0.0657	0.5559	0.168
Mof_H 	H 	0.2468	0.0878	0.606	0.204
Mof_H 	H 	0.1689	0.1835	0.6073	0.197
Mof_H 	H 	0.1626	0.1037	0.5622	0.201
Mof_C 	C 	0.3987	0.1122	0.5364	-0.386
Mof_C 	C 	0.2152	0.1353	0.5871	-0.439
Mof_N 	N 	0.3166	0.1815	0.5655	-0.133
Mof_H 	H 	0.7861	0.2763	0.9533	0.154
Mof_H 	H 	0.8612	0.2842	0.911	0.149
Mof_H 	H 	0.8534	0.4212	0.9903	0.174
Mof_H 	H 	0.9664	0.353	0.9755	0.167
Mof_H 	H 	0.9299	0.4343	0.9441	0.168
Mof_H 	H 	0.7468	0.4122	0.894	0.205
Mof_H 	H 	0.6689	0.3165	0.8927	0.197
Mof_H 	H 	0.6626	0.3963	0.9378	0.202
Mof_C 	C 	0.8987	0.3878	0.9636	-0.386
Mof_C 	C 	0.7152	0.3647	0.9129	-0.439
Mof_N 	N 	0.8166	0.3185	0.9345	-0.133
_end
