# CIF file generated by openbabel 3.1.0, see https://openbabel.org
data_I
_chemical_name_common 'image0'
_cell_length_a 22.087
_cell_length_b 16.3172
_cell_length_c 25.6279
_cell_angle_alpha 90
_cell_angle_beta 115.265
_cell_angle_gamma 90
_space_group_name_H-M_alt 'P 1'
_space_group_name_Hall 'P 1'
loop_
    _symmetry_equiv_pos_as_xyz
    x,y,z
loop_
    _atom_site_label
    _atom_site_type_symbol
    _atom_site_fract_x
    _atom_site_fract_y
    _atom_site_fract_z
    _atom_site_occupancy
    Ag1      Ag       0.82296    0.25212    0.86723    1.000
    Ag2      Ag       0.34397    0.45717    0.36776    1.000
    C1       C        0.62370    0.25680    0.50240    1.000
    C2       C        0.73530    0.06520    0.38820    1.000
    H1       H        0.71340    0.05860    0.34840    1.000
    C3       C        0.27760    0.63770    0.00890    1.000
    H2       H        0.29850    0.63400    0.04890    1.000
    C4       C        0.00330    0.38370    0.99650    1.000
    H3       H        0.02280    0.38220    0.03660    1.000
    C5       C        0.94350    0.34330    0.96480    1.000
    H4       H        0.92330    0.31520    0.98480    1.000
    C6       C        0.21960    0.65210    0.89190    1.000
    H5       H        0.19960    0.65650    0.85190    1.000
    C7       C        0.53320    0.31210    0.41120    1.000
    H6       H        0.55500    0.29120    0.39000    1.000
    C8       C        0.09770    0.46990    0.00100    1.000
    C9       C        0.79810    0.08400    0.50490    1.000
    H7       H        0.82040    0.08830    0.54490    1.000
    C10      C        0.55980    0.30190    0.47010    1.000
    C11      C        0.17920    0.45630    0.18150    1.000
    H8       H        0.13520    0.43880    0.16160    1.000
    C12      C        0.03340    0.42620    0.96710    1.000
    C13      C        0.70980    0.22690    0.58760    1.000
    C14      C        0.74330    0.23730    0.65140    1.000
    C15      C        0.52590    0.33520    0.50010    1.000
    H9       H        0.54300    0.33050    0.54000    1.000
    C16      C        0.18040    0.50230    0.08840    1.000
    C17      C        0.18250    0.55170    0.00670    1.000
    C18      C        0.82600    0.04080    0.47410    1.000
    H10      H        0.86800    0.01760    0.49440    1.000
    C19      C        0.21510    0.60130    0.97740    1.000
    C20      C        0.18550    0.60980    0.91820    1.000
    H11      H        0.14350    0.58750    0.89630    1.000
    C21      C        0.73620    0.12090    0.47490    1.000
    C22      C        0.30790    0.50480    0.24270    1.000
    H12      H        0.35210    0.52120    0.26340    1.000
    C23      C        0.46660    0.37530    0.46930    1.000
    H13      H        0.44430    0.39760    0.48960    1.000
    C24      C        0.70560    0.17210    0.50520    1.000
    C25      C        0.30810    0.67970    0.97890    1.000
    H14      H        0.34970    0.70360    0.99990    1.000
    C26      C        0.47280    0.35440    0.38400    1.000
    H15      H        0.45530    0.36210    0.34430    1.000
    C27      C        0.94360    0.38350    0.87960    1.000
    H16      H        0.92390    0.38240    0.83940    1.000
    C28      C        0.00230    0.42720    0.90710    1.000
    H17      H        0.02050    0.45650    0.88610    1.000
    C29      C        0.70400    0.11030    0.41520    1.000
    H18      H        0.66210    0.13340    0.39390    1.000
    C30      C        0.27820    0.51660    0.18330    1.000
    H19      H        0.30220    0.54020    0.16480    1.000
    C31      C        0.21230    0.49240    0.15200    1.000
    C32      C        0.82830    0.20710    0.74460    1.000
    H20      H        0.86770    0.17950    0.76720    1.000
    C33      C        0.71540    0.28940    0.67810    1.000
    H21      H        0.67730    0.31980    0.65630    1.000
    C34      C        0.80230    0.19750    0.68510    1.000
    H22      H        0.82400    0.16510    0.66850    1.000
    C35      C        0.21190    0.44650    0.24040    1.000
    H23      H        0.18900    0.42210    0.25950    1.000
    C36      C        0.74500    0.29530    0.73720    1.000
    H24      H        0.72570    0.33000    0.75470    1.000
    N1       N        0.91330    0.34260    0.90722    1.000
    N2       N        0.28000    0.68720    0.92140    1.000
    N3       N        0.27590    0.47090    0.27170    1.000
    N4       N        0.12280    0.46270    0.05890    1.000
    N5       N        0.12630    0.51120    0.97315    1.000
    N6       N        0.21150    0.54990    0.06485    1.000
    N7       N        0.43900    0.38430    0.41210    1.000
    N8       N        0.79570    0.03030    0.41656    1.000
    N9       N        0.80040    0.25360    0.77130    1.000
    N10      N        0.64800    0.21050    0.47260    1.000
    N11      N        0.73820    0.17750    0.56314    1.000
    N12      N        0.65290    0.26810    0.55923    1.000
    Ag3      Ag       0.32296    0.75212    0.86723    1.000
    Ag4      Ag       0.84397    0.95717    0.36776    1.000
    C37      C        0.12370    0.75680    0.50240    1.000
    C38      C        0.23530    0.56520    0.38820    1.000
    H25      H        0.21340    0.55860    0.34840    1.000
    C39      C        0.77760    0.13770    0.00890    1.000
    H26      H        0.79850    0.13400    0.04890    1.000
    C40      C        0.50330    0.88370    0.99650    1.000
    H27      H        0.52280    0.88220    0.03660    1.000
    C41      C        0.44350    0.84330    0.96480    1.000
    H28      H        0.42330    0.81520    0.98480    1.000
    C42      C        0.71960    0.15210    0.89190    1.000
    H29      H        0.69960    0.15650    0.85190    1.000
    C43      C        0.03320    0.81210    0.41120    1.000
    H30      H        0.05500    0.79120    0.39000    1.000
    C44      C        0.59770    0.96990    0.00100    1.000
    C45      C        0.29810    0.58400    0.50490    1.000
    H31      H        0.32040    0.58830    0.54490    1.000
    C46      C        0.05980    0.80190    0.47010    1.000
    C47      C        0.67920    0.95630    0.18150    1.000
    H32      H        0.63520    0.93880    0.16160    1.000
    C48      C        0.53340    0.92620    0.96710    1.000
    C49      C        0.20980    0.72690    0.58760    1.000
    C50      C        0.24330    0.73730    0.65140    1.000
    C51      C        0.02590    0.83520    0.50010    1.000
    H33      H        0.04300    0.83050    0.54000    1.000
    C52      C        0.68040    0.00230    0.08840    1.000
    C53      C        0.68250    0.05170    0.00670    1.000
    C54      C        0.32600    0.54080    0.47410    1.000
    H34      H        0.36800    0.51760    0.49440    1.000
    C55      C        0.71510    0.10130    0.97740    1.000
    C56      C        0.68550    0.10980    0.91820    1.000
    H35      H        0.64350    0.08750    0.89630    1.000
    C57      C        0.23620    0.62090    0.47490    1.000
    C58      C        0.80790    0.00480    0.24270    1.000
    H36      H        0.85210    0.02120    0.26340    1.000
    C59      C        0.96660    0.87530    0.46930    1.000
    H37      H        0.94430    0.89760    0.48960    1.000
    C60      C        0.20560    0.67210    0.50520    1.000
    C61      C        0.80810    0.17970    0.97890    1.000
    H38      H        0.84970    0.20360    0.99990    1.000
    C62      C        0.97280    0.85440    0.38400    1.000
    H39      H        0.95530    0.86210    0.34430    1.000
    C63      C        0.44360    0.88350    0.87960    1.000
    H40      H        0.42390    0.88240    0.83940    1.000
    C64      C        0.50230    0.92720    0.90710    1.000
    H41      H        0.52050    0.95650    0.88610    1.000
    C65      C        0.20400    0.61030    0.41520    1.000
    H42      H        0.16210    0.63340    0.39390    1.000
    C66      C        0.77820    0.01660    0.18330    1.000
    H43      H        0.80220    0.04020    0.16480    1.000
    C67      C        0.71230    0.99240    0.15200    1.000
    C68      C        0.32830    0.70710    0.74460    1.000
    H44      H        0.36770    0.67950    0.76720    1.000
    C69      C        0.21540    0.78940    0.67810    1.000
    H45      H        0.17730    0.81980    0.65630    1.000
    C70      C        0.30230    0.69750    0.68510    1.000
    H46      H        0.32400    0.66510    0.66850    1.000
    C71      C        0.71190    0.94650    0.24040    1.000
    H47      H        0.68900    0.92210    0.25950    1.000
    C72      C        0.24500    0.79530    0.73720    1.000
    H48      H        0.22570    0.83000    0.75470    1.000
    N13      N        0.41330    0.84260    0.90722    1.000
    N14      N        0.78000    0.18720    0.92140    1.000
    N15      N        0.77590    0.97090    0.27170    1.000
    N16      N        0.62280    0.96270    0.05890    1.000
    N17      N        0.62630    0.01120    0.97315    1.000
    N18      N        0.71150    0.04990    0.06485    1.000
    N19      N        0.93900    0.88430    0.41210    1.000
    N20      N        0.29570    0.53030    0.41656    1.000
    N21      N        0.30040    0.75360    0.77130    1.000
    N22      N        0.14800    0.71050    0.47260    1.000
    N23      N        0.23820    0.67750    0.56314    1.000
    N24      N        0.15290    0.76810    0.55923    1.000
    Ag5      Ag       0.17704    0.25212    0.63277    1.000
    Ag6      Ag       0.65603    0.45717    0.13224    1.000
    C73      C        0.37630    0.25680    0.99760    1.000
    C74      C        0.26470    0.06520    0.11180    1.000
    H49      H        0.28660    0.05860    0.15160    1.000
    C75      C        0.72240    0.63770    0.49110    1.000
    H50      H        0.70150    0.63400    0.45110    1.000
    C76      C        0.99670    0.38370    0.50350    1.000
    H51      H        0.97720    0.38220    0.46340    1.000
    C77      C        0.05650    0.34330    0.53520    1.000
    H52      H        0.07670    0.31520    0.51520    1.000
    C78      C        0.78040    0.65210    0.60810    1.000
    H53      H        0.80040    0.65650    0.64810    1.000
    C79      C        0.46680    0.31210    0.08880    1.000
    H54      H        0.44500    0.29120    0.11000    1.000
    C80      C        0.90230    0.46990    0.49900    1.000
    C81      C        0.20190    0.08400    0.99510    1.000
    H55      H        0.17960    0.08830    0.95510    1.000
    C82      C        0.44020    0.30190    0.02990    1.000
    C83      C        0.82080    0.45630    0.31850    1.000
    H56      H        0.86480    0.43880    0.33840    1.000
    C84      C        0.96660    0.42620    0.53290    1.000
    C85      C        0.29020    0.22690    0.91240    1.000
    C86      C        0.25670    0.23730    0.84860    1.000
    C87      C        0.47410    0.33520    0.99990    1.000
    H57      H        0.45700    0.33050    0.96000    1.000
    C88      C        0.81960    0.50230    0.41160    1.000
    C89      C        0.81750    0.55170    0.49330    1.000
    C90      C        0.17400    0.04080    0.02590    1.000
    H58      H        0.13200    0.01760    0.00560    1.000
    C91      C        0.78490    0.60130    0.52260    1.000
    C92      C        0.81450    0.60980    0.58180    1.000
    H59      H        0.85650    0.58750    0.60370    1.000
    C93      C        0.26380    0.12090    0.02510    1.000
    C94      C        0.69210    0.50480    0.25730    1.000
    H60      H        0.64790    0.52120    0.23660    1.000
    C95      C        0.53340    0.37530    0.03070    1.000
    H61      H        0.55570    0.39760    0.01040    1.000
    C96      C        0.29440    0.17210    0.99480    1.000
    C97      C        0.69190    0.67970    0.52110    1.000
    H62      H        0.65030    0.70360    0.50010    1.000
    C98      C        0.52720    0.35440    0.11600    1.000
    H63      H        0.54470    0.36210    0.15570    1.000
    C99      C        0.05640    0.38350    0.62040    1.000
    H64      H        0.07610    0.38240    0.66060    1.000
    C100     C        0.99770    0.42720    0.59290    1.000
    H65      H        0.97950    0.45650    0.61390    1.000
    C101     C        0.29600    0.11030    0.08480    1.000
    H66      H        0.33790    0.13340    0.10610    1.000
    C102     C        0.72180    0.51660    0.31670    1.000
    H67      H        0.69780    0.54020    0.33520    1.000
    C103     C        0.78770    0.49240    0.34800    1.000
    C104     C        0.17170    0.20710    0.75540    1.000
    H68      H        0.13230    0.17950    0.73280    1.000
    C105     C        0.28460    0.28940    0.82190    1.000
    H69      H        0.32270    0.31980    0.84370    1.000
    C106     C        0.19770    0.19750    0.81490    1.000
    H70      H        0.17600    0.16510    0.83150    1.000
    C107     C        0.78810    0.44650    0.25960    1.000
    H71      H        0.81100    0.42210    0.24050    1.000
    C108     C        0.25500    0.29530    0.76280    1.000
    H72      H        0.27430    0.33000    0.74530    1.000
    N25      N        0.08670    0.34260    0.59278    1.000
    N26      N        0.72000    0.68720    0.57860    1.000
    N27      N        0.72410    0.47090    0.22830    1.000
    N28      N        0.87720    0.46270    0.44110    1.000
    N29      N        0.87370    0.51120    0.52685    1.000
    N30      N        0.78850    0.54990    0.43515    1.000
    N31      N        0.56100    0.38430    0.08790    1.000
    N32      N        0.20430    0.03030    0.08344    1.000
    N33      N        0.19960    0.25360    0.72870    1.000
    N34      N        0.35200    0.21050    0.02740    1.000
    N35      N        0.26180    0.17750    0.93686    1.000
    N36      N        0.34710    0.26810    0.94077    1.000
    Ag7      Ag       0.67704    0.75212    0.63277    1.000
    Ag8      Ag       0.15603    0.95717    0.13224    1.000
    C109     C        0.87630    0.75680    0.99760    1.000
    C110     C        0.76470    0.56520    0.11180    1.000
    H73      H        0.78660    0.55860    0.15160    1.000
    C111     C        0.22240    0.13770    0.49110    1.000
    H74      H        0.20150    0.13400    0.45110    1.000
    C112     C        0.49670    0.88370    0.50350    1.000
    H75      H        0.47720    0.88220    0.46340    1.000
    C113     C        0.55650    0.84330    0.53520    1.000
    H76      H        0.57670    0.81520    0.51520    1.000
    C114     C        0.28040    0.15210    0.60810    1.000
    H77      H        0.30040    0.15650    0.64810    1.000
    C115     C        0.96680    0.81210    0.08880    1.000
    H78      H        0.94500    0.79120    0.11000    1.000
    C116     C        0.40230    0.96990    0.49900    1.000
    C117     C        0.70190    0.58400    0.99510    1.000
    H79      H        0.67960    0.58830    0.95510    1.000
    C118     C        0.94020    0.80190    0.02990    1.000
    C119     C        0.32080    0.95630    0.31850    1.000
    H80      H        0.36480    0.93880    0.33840    1.000
    C120     C        0.46660    0.92620    0.53290    1.000
    C121     C        0.79020    0.72690    0.91240    1.000
    C122     C        0.75670    0.73730    0.84860    1.000
    C123     C        0.97410    0.83520    0.99990    1.000
    H81      H        0.95700    0.83050    0.96000    1.000
    C124     C        0.31960    0.00230    0.41160    1.000
    C125     C        0.31750    0.05170    0.49330    1.000
    C126     C        0.67400    0.54080    0.02590    1.000
    H82      H        0.63200    0.51760    0.00560    1.000
    C127     C        0.28490    0.10130    0.52260    1.000
    C128     C        0.31450    0.10980    0.58180    1.000
    H83      H        0.35650    0.08750    0.60370    1.000
    C129     C        0.76380    0.62090    0.02510    1.000
    C130     C        0.19210    0.00480    0.25730    1.000
    H84      H        0.14790    0.02120    0.23660    1.000
    C131     C        0.03340    0.87530    0.03070    1.000
    H85      H        0.05570    0.89760    0.01040    1.000
    C132     C        0.79440    0.67210    0.99480    1.000
    C133     C        0.19190    0.17970    0.52110    1.000
    H86      H        0.15030    0.20360    0.50010    1.000
    C134     C        0.02720    0.85440    0.11600    1.000
    H87      H        0.04470    0.86210    0.15570    1.000
    C135     C        0.55640    0.88350    0.62040    1.000
    H88      H        0.57610    0.88240    0.66060    1.000
    C136     C        0.49770    0.92720    0.59290    1.000
    H89      H        0.47950    0.95650    0.61390    1.000
    C137     C        0.79600    0.61030    0.08480    1.000
    H90      H        0.83790    0.63340    0.10610    1.000
    C138     C        0.22180    0.01660    0.31670    1.000
    H91      H        0.19780    0.04020    0.33520    1.000
    C139     C        0.28770    0.99240    0.34800    1.000
    C140     C        0.67170    0.70710    0.75540    1.000
    H92      H        0.63230    0.67950    0.73280    1.000
    C141     C        0.78460    0.78940    0.82190    1.000
    H93      H        0.82270    0.81980    0.84370    1.000
    C142     C        0.69770    0.69750    0.81490    1.000
    H94      H        0.67600    0.66510    0.83150    1.000
    C143     C        0.28810    0.94650    0.25960    1.000
    H95      H        0.31100    0.92210    0.24050    1.000
    C144     C        0.75500    0.79530    0.76280    1.000
    H96      H        0.77430    0.83000    0.74530    1.000
    N37      N        0.58670    0.84260    0.59278    1.000
    N38      N        0.22000    0.18720    0.57860    1.000
    N39      N        0.22410    0.97090    0.22830    1.000
    N40      N        0.37720    0.96270    0.44110    1.000
    N41      N        0.37370    0.01120    0.52685    1.000
    N42      N        0.28850    0.04990    0.43515    1.000
    N43      N        0.06100    0.88430    0.08790    1.000
    N44      N        0.70430    0.53030    0.08344    1.000
    N45      N        0.69960    0.75360    0.72870    1.000
    N46      N        0.85200    0.71050    0.02740    1.000
    N47      N        0.76180    0.67750    0.93686    1.000
    N48      N        0.84710    0.76810    0.94077    1.000
    Ag9      Ag       0.17704    0.74788    0.13277    1.000
    Ag10     Ag       0.65603    0.54283    0.63224    1.000
    C145     C        0.37630    0.74320    0.49760    1.000
    C146     C        0.26470    0.93480    0.61180    1.000
    H97      H        0.28660    0.94140    0.65160    1.000
    C147     C        0.72240    0.36230    0.99110    1.000
    H98      H        0.70150    0.36600    0.95110    1.000
    C148     C        0.99670    0.61630    0.00350    1.000
    H99      H        0.97720    0.61780    0.96340    1.000
    C149     C        0.05650    0.65670    0.03520    1.000
    H100     H        0.07670    0.68480    0.01520    1.000
    C150     C        0.78040    0.34790    0.10810    1.000
    H101     H        0.80040    0.34350    0.14810    1.000
    C151     C        0.46680    0.68790    0.58880    1.000
    H102     H        0.44500    0.70880    0.61000    1.000
    C152     C        0.90230    0.53010    0.99900    1.000
    C153     C        0.20190    0.91600    0.49510    1.000
    H103     H        0.17960    0.91170    0.45510    1.000
    C154     C        0.44020    0.69810    0.52990    1.000
    C155     C        0.82080    0.54370    0.81850    1.000
    H104     H        0.86480    0.56120    0.83840    1.000
    C156     C        0.96660    0.57380    0.03290    1.000
    C157     C        0.29020    0.77310    0.41240    1.000
    C158     C        0.25670    0.76270    0.34860    1.000
    C159     C        0.47410    0.66480    0.49990    1.000
    H105     H        0.45700    0.66950    0.46000    1.000
    C160     C        0.81960    0.49770    0.91160    1.000
    C161     C        0.81750    0.44830    0.99330    1.000
    C162     C        0.17400    0.95920    0.52590    1.000
    H106     H        0.13200    0.98240    0.50560    1.000
    C163     C        0.78490    0.39870    0.02260    1.000
    C164     C        0.81450    0.39020    0.08180    1.000
    H107     H        0.85650    0.41250    0.10370    1.000
    C165     C        0.26380    0.87910    0.52510    1.000
    C166     C        0.69210    0.49520    0.75730    1.000
    H108     H        0.64790    0.47880    0.73660    1.000
    C167     C        0.53340    0.62470    0.53070    1.000
    H109     H        0.55570    0.60240    0.51040    1.000
    C168     C        0.29440    0.82790    0.49480    1.000
    C169     C        0.69190    0.32030    0.02110    1.000
    H110     H        0.65030    0.29640    0.00010    1.000
    C170     C        0.52720    0.64560    0.61600    1.000
    H111     H        0.54470    0.63790    0.65570    1.000
    C171     C        0.05640    0.61650    0.12040    1.000
    H112     H        0.07610    0.61760    0.16060    1.000
    C172     C        0.99770    0.57280    0.09290    1.000
    H113     H        0.97950    0.54350    0.11390    1.000
    C173     C        0.29600    0.88970    0.58480    1.000
    H114     H        0.33790    0.86660    0.60610    1.000
    C174     C        0.72180    0.48340    0.81670    1.000
    H115     H        0.69780    0.45980    0.83520    1.000
    C175     C        0.78770    0.50760    0.84800    1.000
    C176     C        0.17170    0.79290    0.25540    1.000
    H116     H        0.13230    0.82050    0.23280    1.000
    C177     C        0.28460    0.71060    0.32190    1.000
    H117     H        0.32270    0.68020    0.34370    1.000
    C178     C        0.19770    0.80250    0.31490    1.000
    H118     H        0.17600    0.83490    0.33150    1.000
    C179     C        0.78810    0.55350    0.75960    1.000
    H119     H        0.81100    0.57790    0.74050    1.000
    C180     C        0.25500    0.70470    0.26280    1.000
    H120     H        0.27430    0.67000    0.24530    1.000
    N49      N        0.08670    0.65740    0.09278    1.000
    N50      N        0.72000    0.31280    0.07860    1.000
    N51      N        0.72410    0.52910    0.72830    1.000
    N52      N        0.87720    0.53730    0.94110    1.000
    N53      N        0.87370    0.48880    0.02685    1.000
    N54      N        0.78850    0.45010    0.93515    1.000
    N55      N        0.56100    0.61570    0.58790    1.000
    N56      N        0.20430    0.96970    0.58344    1.000
    N57      N        0.19960    0.74640    0.22870    1.000
    N58      N        0.35200    0.78950    0.52740    1.000
    N59      N        0.26180    0.82250    0.43686    1.000
    N60      N        0.34710    0.73190    0.44077    1.000
    Ag11     Ag       0.67704    0.24788    0.13277    1.000
    Ag12     Ag       0.15603    0.04283    0.63224    1.000
    C181     C        0.87630    0.24320    0.49760    1.000
    C182     C        0.76470    0.43480    0.61180    1.000
    H121     H        0.78660    0.44140    0.65160    1.000
    C183     C        0.22240    0.86230    0.99110    1.000
    H122     H        0.20150    0.86600    0.95110    1.000
    C184     C        0.49670    0.11630    0.00350    1.000
    H123     H        0.47720    0.11780    0.96340    1.000
    C185     C        0.55650    0.15670    0.03520    1.000
    H124     H        0.57670    0.18480    0.01520    1.000
    C186     C        0.28040    0.84790    0.10810    1.000
    H125     H        0.30040    0.84350    0.14810    1.000
    C187     C        0.96680    0.18790    0.58880    1.000
    H126     H        0.94500    0.20880    0.61000    1.000
    C188     C        0.40230    0.03010    0.99900    1.000
    C189     C        0.70190    0.41600    0.49510    1.000
    H127     H        0.67960    0.41170    0.45510    1.000
    C190     C        0.94020    0.19810    0.52990    1.000
    C191     C        0.32080    0.04370    0.81850    1.000
    H128     H        0.36480    0.06120    0.83840    1.000
    C192     C        0.46660    0.07380    0.03290    1.000
    C193     C        0.79020    0.27310    0.41240    1.000
    C194     C        0.75670    0.26270    0.34860    1.000
    C195     C        0.97410    0.16480    0.49990    1.000
    H129     H        0.95700    0.16950    0.46000    1.000
    C196     C        0.31960    0.99770    0.91160    1.000
    C197     C        0.31750    0.94830    0.99330    1.000
    C198     C        0.67400    0.45920    0.52590    1.000
    H130     H        0.63200    0.48240    0.50560    1.000
    C199     C        0.28490    0.89870    0.02260    1.000
    C200     C        0.31450    0.89020    0.08180    1.000
    H131     H        0.35650    0.91250    0.10370    1.000
    C201     C        0.76380    0.37910    0.52510    1.000
    C202     C        0.19210    0.99520    0.75730    1.000
    H132     H        0.14790    0.97880    0.73660    1.000
    C203     C        0.03340    0.12470    0.53070    1.000
    H133     H        0.05570    0.10240    0.51040    1.000
    C204     C        0.79440    0.32790    0.49480    1.000
    C205     C        0.19190    0.82030    0.02110    1.000
    H134     H        0.15030    0.79640    0.00010    1.000
    C206     C        0.02720    0.14560    0.61600    1.000
    H135     H        0.04470    0.13790    0.65570    1.000
    C207     C        0.55640    0.11650    0.12040    1.000
    H136     H        0.57610    0.11760    0.16060    1.000
    C208     C        0.49770    0.07280    0.09290    1.000
    H137     H        0.47950    0.04350    0.11390    1.000
    C209     C        0.79600    0.38970    0.58480    1.000
    H138     H        0.83790    0.36660    0.60610    1.000
    C210     C        0.22180    0.98340    0.81670    1.000
    H139     H        0.19780    0.95980    0.83520    1.000
    C211     C        0.28770    0.00760    0.84800    1.000
    C212     C        0.67170    0.29290    0.25540    1.000
    H140     H        0.63230    0.32050    0.23280    1.000
    C213     C        0.78460    0.21060    0.32190    1.000
    H141     H        0.82270    0.18020    0.34370    1.000
    C214     C        0.69770    0.30250    0.31490    1.000
    H142     H        0.67600    0.33490    0.33150    1.000
    C215     C        0.28810    0.05350    0.75960    1.000
    H143     H        0.31100    0.07790    0.74050    1.000
    C216     C        0.75500    0.20470    0.26280    1.000
    H144     H        0.77430    0.17000    0.24530    1.000
    N61      N        0.58670    0.15740    0.09278    1.000
    N62      N        0.22000    0.81280    0.07860    1.000
    N63      N        0.22410    0.02910    0.72830    1.000
    N64      N        0.37720    0.03730    0.94110    1.000
    N65      N        0.37370    0.98880    0.02685    1.000
    N66      N        0.28850    0.95010    0.93515    1.000
    N67      N        0.06100    0.11570    0.58790    1.000
    N68      N        0.70430    0.46970    0.58344    1.000
    N69      N        0.69960    0.24640    0.22870    1.000
    N70      N        0.85200    0.28950    0.52740    1.000
    N71      N        0.76180    0.32250    0.43686    1.000
    N72      N        0.84710    0.23190    0.44077    1.000
    Ag13     Ag       0.82296    0.74788    0.36723    1.000
    Ag14     Ag       0.34397    0.54283    0.86776    1.000
    C217     C        0.62370    0.74320    0.00240    1.000
    C218     C        0.73530    0.93480    0.88820    1.000
    H145     H        0.71340    0.94140    0.84840    1.000
    C219     C        0.27760    0.36230    0.50890    1.000
    H146     H        0.29850    0.36600    0.54890    1.000
    C220     C        0.00330    0.61630    0.49650    1.000
    H147     H        0.02280    0.61780    0.53660    1.000
    C221     C        0.94350    0.65670    0.46480    1.000
    H148     H        0.92330    0.68480    0.48480    1.000
    C222     C        0.21960    0.34790    0.39190    1.000
    H149     H        0.19960    0.34350    0.35190    1.000
    C223     C        0.53320    0.68790    0.91120    1.000
    H150     H        0.55500    0.70880    0.89000    1.000
    C224     C        0.09770    0.53010    0.50100    1.000
    C225     C        0.79810    0.91600    0.00490    1.000
    H151     H        0.82040    0.91170    0.04490    1.000
    C226     C        0.55980    0.69810    0.97010    1.000
    C227     C        0.17920    0.54370    0.68150    1.000
    H152     H        0.13520    0.56120    0.66160    1.000
    C228     C        0.03340    0.57380    0.46710    1.000
    C229     C        0.70980    0.77310    0.08760    1.000
    C230     C        0.74330    0.76270    0.15140    1.000
    C231     C        0.52590    0.66480    0.00010    1.000
    H153     H        0.54300    0.66950    0.04000    1.000
    C232     C        0.18040    0.49770    0.58840    1.000
    C233     C        0.18250    0.44830    0.50670    1.000
    C234     C        0.82600    0.95920    0.97410    1.000
    H154     H        0.86800    0.98240    0.99440    1.000
    C235     C        0.21510    0.39870    0.47740    1.000
    C236     C        0.18550    0.39020    0.41820    1.000
    H155     H        0.14350    0.41250    0.39630    1.000
    C237     C        0.73620    0.87910    0.97490    1.000
    C238     C        0.30790    0.49520    0.74270    1.000
    H156     H        0.35210    0.47880    0.76340    1.000
    C239     C        0.46660    0.62470    0.96930    1.000
    H157     H        0.44430    0.60240    0.98960    1.000
    C240     C        0.70560    0.82790    0.00520    1.000
    C241     C        0.30810    0.32030    0.47890    1.000
    H158     H        0.34970    0.29640    0.49990    1.000
    C242     C        0.47280    0.64560    0.88400    1.000
    H159     H        0.45530    0.63790    0.84430    1.000
    C243     C        0.94360    0.61650    0.37960    1.000
    H160     H        0.92390    0.61760    0.33940    1.000
    C244     C        0.00230    0.57280    0.40710    1.000
    H161     H        0.02050    0.54350    0.38610    1.000
    C245     C        0.70400    0.88970    0.91520    1.000
    H162     H        0.66210    0.86660    0.89390    1.000
    C246     C        0.27820    0.48340    0.68330    1.000
    H163     H        0.30220    0.45980    0.66480    1.000
    C247     C        0.21230    0.50760    0.65200    1.000
    C248     C        0.82830    0.79290    0.24460    1.000
    H164     H        0.86770    0.82050    0.26720    1.000
    C249     C        0.71540    0.71060    0.17810    1.000
    H165     H        0.67730    0.68020    0.15630    1.000
    C250     C        0.80230    0.80250    0.18510    1.000
    H166     H        0.82400    0.83490    0.16850    1.000
    C251     C        0.21190    0.55350    0.74040    1.000
    H167     H        0.18900    0.57790    0.75950    1.000
    C252     C        0.74500    0.70470    0.23720    1.000
    H168     H        0.72570    0.67000    0.25470    1.000
    N73      N        0.91330    0.65740    0.40722    1.000
    N74      N        0.28000    0.31280    0.42140    1.000
    N75      N        0.27590    0.52910    0.77170    1.000
    N76      N        0.12280    0.53730    0.55890    1.000
    N77      N        0.12630    0.48880    0.47315    1.000
    N78      N        0.21150    0.45010    0.56485    1.000
    N79      N        0.43900    0.61570    0.91210    1.000
    N80      N        0.79570    0.96970    0.91656    1.000
    N81      N        0.80040    0.74640    0.27130    1.000
    N82      N        0.64800    0.78950    0.97260    1.000
    N83      N        0.73820    0.82250    0.06314    1.000
    N84      N        0.65290    0.73190    0.05923    1.000
    Ag15     Ag       0.32296    0.24788    0.36723    1.000
    Ag16     Ag       0.84397    0.04283    0.86776    1.000
    C253     C        0.12370    0.24320    0.00240    1.000
    C254     C        0.23530    0.43480    0.88820    1.000
    H169     H        0.21340    0.44140    0.84840    1.000
    C255     C        0.77760    0.86230    0.50890    1.000
    H170     H        0.79850    0.86600    0.54890    1.000
    C256     C        0.50330    0.11630    0.49650    1.000
    H171     H        0.52280    0.11780    0.53660    1.000
    C257     C        0.44350    0.15670    0.46480    1.000
    H172     H        0.42330    0.18480    0.48480    1.000
    C258     C        0.71960    0.84790    0.39190    1.000
    H173     H        0.69960    0.84350    0.35190    1.000
    C259     C        0.03320    0.18790    0.91120    1.000
    H174     H        0.05500    0.20880    0.89000    1.000
    C260     C        0.59770    0.03010    0.50100    1.000
    C261     C        0.29810    0.41600    0.00490    1.000
    H175     H        0.32040    0.41170    0.04490    1.000
    C262     C        0.05980    0.19810    0.97010    1.000
    C263     C        0.67920    0.04370    0.68150    1.000
    H176     H        0.63520    0.06120    0.66160    1.000
    C264     C        0.53340    0.07380    0.46710    1.000
    C265     C        0.20980    0.27310    0.08760    1.000
    C266     C        0.24330    0.26270    0.15140    1.000
    C267     C        0.02590    0.16480    0.00010    1.000
    H177     H        0.04300    0.16950    0.04000    1.000
    C268     C        0.68040    0.99770    0.58840    1.000
    C269     C        0.68250    0.94830    0.50670    1.000
    C270     C        0.32600    0.45920    0.97410    1.000
    H178     H        0.36800    0.48240    0.99440    1.000
    C271     C        0.71510    0.89870    0.47740    1.000
    C272     C        0.68550    0.89020    0.41820    1.000
    H179     H        0.64350    0.91250    0.39630    1.000
    C273     C        0.23620    0.37910    0.97490    1.000
    C274     C        0.80790    0.99520    0.74270    1.000
    H180     H        0.85210    0.97880    0.76340    1.000
    C275     C        0.96660    0.12470    0.96930    1.000
    H181     H        0.94430    0.10240    0.98960    1.000
    C276     C        0.20560    0.32790    0.00520    1.000
    C277     C        0.80810    0.82030    0.47890    1.000
    H182     H        0.84970    0.79640    0.49990    1.000
    C278     C        0.97280    0.14560    0.88400    1.000
    H183     H        0.95530    0.13790    0.84430    1.000
    C279     C        0.44360    0.11650    0.37960    1.000
    H184     H        0.42390    0.11760    0.33940    1.000
    C280     C        0.50230    0.07280    0.40710    1.000
    H185     H        0.52050    0.04350    0.38610    1.000
    C281     C        0.20400    0.38970    0.91520    1.000
    H186     H        0.16210    0.36660    0.89390    1.000
    C282     C        0.77820    0.98340    0.68330    1.000
    H187     H        0.80220    0.95980    0.66480    1.000
    C283     C        0.71230    0.00760    0.65200    1.000
    C284     C        0.32830    0.29290    0.24460    1.000
    H188     H        0.36770    0.32050    0.26720    1.000
    C285     C        0.21540    0.21060    0.17810    1.000
    H189     H        0.17730    0.18020    0.15630    1.000
    C286     C        0.30230    0.30250    0.18510    1.000
    H190     H        0.32400    0.33490    0.16850    1.000
    C287     C        0.71190    0.05350    0.74040    1.000
    H191     H        0.68900    0.07790    0.75950    1.000
    C288     C        0.24500    0.20470    0.23720    1.000
    H192     H        0.22570    0.17000    0.25470    1.000
    N85      N        0.41330    0.15740    0.40722    1.000
    N86      N        0.78000    0.81280    0.42140    1.000
    N87      N        0.77590    0.02910    0.77170    1.000
    N88      N        0.62280    0.03730    0.55890    1.000
    N89      N        0.62630    0.98880    0.47315    1.000
    N90      N        0.71150    0.95010    0.56485    1.000
    N91      N        0.93900    0.11570    0.91210    1.000
    N92      N        0.29570    0.46970    0.91656    1.000
    N93      N        0.30040    0.24640    0.27130    1.000
    N94      N        0.14800    0.28950    0.97260    1.000
    N95      N        0.23820    0.32250    0.06314    1.000
    N96      N        0.15290    0.23190    0.05923    1.000
