data_functionalizedCrystal
_audit_creation_method	'EQeq! by Chris Wilmer'
_symmetry_space_group_name_H-M	'P1'
_symmetry_Int_Tables_number	1
_symmetry_cell_setting	triclinic
loop_
_symmetry_equiv_pos_as_xyz
  x,y,z
_cell_length_a	15.8979
_cell_length_b	15.7892
_cell_length_c	20.3288
_cell_angle_alpha	90
_cell_angle_beta	106.324
_cell_angle_gamma	90
loop_
_atom_site_label
_atom_site_type_symbol
_atom_site_fract_x
_atom_site_fract_y
_atom_site_fract_z
_atom_site_charge
Mof_Ni	Ni	0.21744	0.05982	0.22301	1.059
Mof_S 	S 	0.8894	0.7817	0.13621	-0.039
Mof_S 	S 	0.775	0.8423	0.0932	-0.014
Mof_O 	O 	0.2159	0.2736	0.2311	-0.278
Mof_O 	O 	0.1335	0.1568	0.2223	-0.433
Mof_O 	O 	0.1957	0.4608	0.2741	-0.408
Mof_O 	O 	0.136	0.4455	0.1613	-0.278
Mof_N 	N 	0.111	0.9771	0.1944	-0.232
Mof_N 	N 	0.7804	0.914	0.8771	-0.246
Mof_C 	C 	0.0259	0.0024	0.1728	0.066
Mof_H 	H 	0.0149	0.0603	0.1708	0.006
Mof_C 	C 	0.9554	0.9492	0.1538	-0.138
Mof_H 	H 	0.8986	0.9704	0.1391	0.075
Mof_C 	C 	0.9708	0.8626	0.1569	0.085
Mof_C 	C 	0.0586	0.835	0.1803	-0.146
Mof_H 	H 	0.0717	0.7775	0.1833	0.082
Mof_C 	C 	0.7816	0.8673	0.0095	0.113
Mof_C 	C 	0.0703	0.375	0.2367	-0.047
Mof_C 	C 	0.0706	0.2875	0.2382	-0.046
Mof_C 	C 	0.1464	0.2346	0.2295	0.328
Mof_C 	C 	0.1224	0.8922	0.1981	0.075
Mof_H 	H 	0.1795	0.8722	0.2145	0.023
Mof_C 	C 	0.8543	0.8555	0.9868	-0.177
Mof_H 	H 	0.9049	0.8314	0.0153	0.1
Mof_C 	C 	0.7104	0.924	0.8998	0.108
Mof_H 	H 	0.6599	0.9464	0.87	-0.013
Mof_C 	C 	0.8512	0.8799	0.9207	0.104
Mof_H 	H 	0.901	0.8722	0.9059	-0.008
Mof_C 	C 	0.7085	0.9029	0.965	-0.178
Mof_H 	H 	0.6584	0.9127	0.9789	0.101
Mof_C 	C 	0.1399	0.4298	0.2228	0.323
Mof_Ni	Ni	0.71744	0.55982	0.22301	1.058
Mof_S 	S 	0.3894	0.2817	0.13621	-0.042
Mof_S 	S 	0.275	0.3423	0.0932	-0.014
Mof_O 	O 	0.7159	0.7736	0.2311	-0.278
Mof_O 	O 	0.6335	0.6568	0.2223	-0.433
Mof_O 	O 	0.6957	0.9608	0.2741	-0.407
Mof_O 	O 	0.636	0.9455	0.1613	-0.276
Mof_N 	N 	0.611	0.4771	0.1944	-0.235
Mof_N 	N 	0.2804	0.414	0.8771	-0.243
Mof_C 	C 	0.5259	0.5024	0.1728	0.077
Mof_H 	H 	0.5149	0.5603	0.1708	0.004
Mof_C 	C 	0.4554	0.4492	0.1538	-0.148
Mof_H 	H 	0.3986	0.4704	0.1391	0.077
Mof_C 	C 	0.4708	0.3626	0.1569	0.085
Mof_C 	C 	0.5586	0.335	0.1803	-0.144
Mof_H 	H 	0.5717	0.2775	0.1833	0.081
Mof_C 	C 	0.2816	0.3673	0.0095	0.1
Mof_C 	C 	0.5703	0.875	0.2367	-0.047
Mof_C 	C 	0.5706	0.7875	0.2382	-0.046
Mof_C 	C 	0.6464	0.7346	0.2295	0.329
Mof_C 	C 	0.6224	0.3922	0.1981	0.075
Mof_H 	H 	0.6795	0.3722	0.2145	0.023
Mof_C 	C 	0.3543	0.3555	0.9868	-0.16
Mof_H 	H 	0.4049	0.3314	0.0153	0.092
Mof_C 	C 	0.2104	0.424	0.8998	0.102
Mof_H 	H 	0.1599	0.4464	0.87	-0.011
Mof_C 	C 	0.3512	0.3799	0.9207	0.096
Mof_H 	H 	0.401	0.3722	0.9059	-0.005
Mof_C 	C 	0.2085	0.4029	0.965	-0.167
Mof_H 	H 	0.1584	0.4127	0.9789	0.098
Mof_C 	C 	0.6399	0.9298	0.2228	0.323
Mof_Ni	Ni	0.78256	0.05982	0.27699	1.058
Mof_S 	S 	0.1106	0.7817	0.36379	-0.042
Mof_S 	S 	0.225	0.8423	0.4068	-0.014
Mof_O 	O 	0.7841	0.2736	0.2689	-0.278
Mof_O 	O 	0.8665	0.1568	0.2777	-0.433
Mof_O 	O 	0.8043	0.4608	0.2259	-0.407
Mof_O 	O 	0.864	0.4455	0.3387	-0.276
Mof_N 	N 	0.889	0.9771	0.3056	-0.233
Mof_N 	N 	0.2196	0.914	0.6229	-0.244
Mof_C 	C 	0.9741	0.0024	0.3272	0.077
Mof_H 	H 	0.9851	0.0603	0.3292	0.004
Mof_C 	C 	0.0446	0.9492	0.3462	-0.148
Mof_H 	H 	0.1014	0.9704	0.3609	0.077
Mof_C 	C 	0.0292	0.8626	0.3431	0.081
Mof_C 	C 	0.9414	0.835	0.3197	-0.138
Mof_H 	H 	0.9283	0.7775	0.3167	0.08
Mof_C 	C 	0.2184	0.8673	0.4905	0.103
Mof_C 	C 	0.9297	0.375	0.2633	-0.044
Mof_C 	C 	0.9294	0.2875	0.2618	-0.044
Mof_C 	C 	0.8536	0.2346	0.2705	0.328
Mof_C 	C 	0.8776	0.8922	0.3019	0.073
Mof_H 	H 	0.8205	0.8722	0.2855	0.024
Mof_C 	C 	0.1457	0.8555	0.5132	-0.164
Mof_H 	H 	0.0951	0.8314	0.4847	0.094
Mof_C 	C 	0.2896	0.924	0.6002	0.104
Mof_H 	H 	0.3401	0.9464	0.63	-0.011
Mof_C 	C 	0.1488	0.8799	0.5793	0.098
Mof_H 	H 	0.099	0.8722	0.5941	-0.007
Mof_C 	C 	0.2915	0.9029	0.535	-0.17
Mof_H 	H 	0.3416	0.9127	0.5211	0.099
Mof_C 	C 	0.8601	0.4298	0.2772	0.322
Mof_Ni	Ni	0.28256	0.55982	0.27699	1.058
Mof_S 	S 	0.6106	0.2817	0.36379	-0.042
Mof_S 	S 	0.725	0.3423	0.4068	-0.014
Mof_O 	O 	0.2841	0.7736	0.2689	-0.278
Mof_O 	O 	0.3665	0.6568	0.2777	-0.434
Mof_O 	O 	0.3043	0.9608	0.2259	-0.407
Mof_O 	O 	0.364	0.9455	0.3387	-0.277
Mof_N 	N 	0.389	0.4771	0.3056	-0.235
Mof_N 	N 	0.7196	0.414	0.6229	-0.244
Mof_C 	C 	0.4741	0.5024	0.3272	0.077
Mof_H 	H 	0.4851	0.5603	0.3292	0.004
Mof_C 	C 	0.5446	0.4492	0.3462	-0.148
Mof_H 	H 	0.6014	0.4704	0.3609	0.078
Mof_C 	C 	0.5292	0.3626	0.3431	0.085
Mof_C 	C 	0.4414	0.335	0.3197	-0.144
Mof_H 	H 	0.4283	0.2775	0.3167	0.081
Mof_C 	C 	0.7184	0.3673	0.4905	0.103
Mof_C 	C 	0.4297	0.875	0.2633	-0.047
Mof_C 	C 	0.4294	0.7875	0.2618	-0.046
Mof_C 	C 	0.3536	0.7346	0.2705	0.329
Mof_C 	C 	0.3776	0.3922	0.3019	0.075
Mof_H 	H 	0.3205	0.3722	0.2855	0.023
Mof_C 	C 	0.6457	0.3555	0.5132	-0.164
Mof_H 	H 	0.5951	0.3314	0.4847	0.094
Mof_C 	C 	0.7896	0.424	0.6002	0.104
Mof_H 	H 	0.8401	0.4464	0.63	-0.01
Mof_C 	C 	0.6488	0.3799	0.5793	0.098
Mof_H 	H 	0.599	0.3722	0.5941	-0.006
Mof_C 	C 	0.7915	0.4029	0.535	-0.17
Mof_H 	H 	0.8416	0.4127	0.5211	0.099
Mof_C 	C 	0.3601	0.9298	0.2772	0.323
Mof_Ni	Ni	0.78256	0.94018	0.77699	1.058
Mof_S 	S 	0.1106	0.2183	0.86379	-0.042
Mof_S 	S 	0.225	0.1577	0.9068	-0.015
Mof_O 	O 	0.7841	0.7264	0.7689	-0.278
Mof_O 	O 	0.8665	0.8432	0.7777	-0.433
Mof_O 	O 	0.8043	0.5392	0.7259	-0.407
Mof_O 	O 	0.864	0.5545	0.8387	-0.276
Mof_N 	N 	0.889	0.0229	0.8056	-0.232
Mof_N 	N 	0.2196	0.086	0.1229	-0.246
Mof_C 	C 	0.9741	0.9976	0.8272	0.076
Mof_H 	H 	0.9851	0.9397	0.8292	0.005
Mof_C 	C 	0.0446	0.0508	0.8462	-0.147
Mof_H 	H 	0.1014	0.0296	0.8609	0.077
Mof_C 	C 	0.0292	0.1374	0.8431	0.08
Mof_C 	C 	0.9414	0.165	0.8197	-0.138
Mof_H 	H 	0.9283	0.2225	0.8167	0.08
Mof_C 	C 	0.2184	0.1327	0.9905	0.112
Mof_C 	C 	0.9297	0.625	0.7633	-0.044
Mof_C 	C 	0.9294	0.7125	0.7618	-0.043
Mof_C 	C 	0.8536	0.7654	0.7705	0.328
Mof_C 	C 	0.8776	0.1078	0.8019	0.072
Mof_H 	H 	0.8205	0.1278	0.7855	0.024
Mof_C 	C 	0.1457	0.1445	0.0132	-0.176
Mof_H 	H 	0.0951	0.1686	0.9847	0.099
Mof_C 	C 	0.2896	0.076	0.1002	0.108
Mof_H 	H 	0.3401	0.0536	0.13	-0.013
Mof_C 	C 	0.1488	0.1201	0.0793	0.103
Mof_H 	H 	0.099	0.1278	0.0941	-0.009
Mof_C 	C 	0.2915	0.0971	0.035	-0.178
Mof_H 	H 	0.3416	0.0873	0.0211	0.101
Mof_C 	C 	0.8601	0.5702	0.7772	0.322
Mof_Ni	Ni	0.28256	0.44018	0.77699	1.058
Mof_S 	S 	0.6106	0.7183	0.86379	-0.042
Mof_S 	S 	0.725	0.6577	0.9068	-0.013
Mof_O 	O 	0.2841	0.2264	0.7689	-0.278
Mof_O 	O 	0.3665	0.3432	0.7777	-0.434
Mof_O 	O 	0.3043	0.0392	0.7259	-0.407
Mof_O 	O 	0.364	0.0545	0.8387	-0.276
Mof_N 	N 	0.389	0.5229	0.8056	-0.235
Mof_N 	N 	0.7196	0.586	0.1229	-0.243
Mof_C 	C 	0.4741	0.4976	0.8272	0.077
Mof_H 	H 	0.4851	0.4397	0.8292	0.004
Mof_C 	C 	0.5446	0.5508	0.8462	-0.148
Mof_H 	H 	0.6014	0.5296	0.8609	0.078
Mof_C 	C 	0.5292	0.6374	0.8431	0.085
Mof_C 	C 	0.4414	0.665	0.8197	-0.144
Mof_H 	H 	0.4283	0.7225	0.8167	0.081
Mof_C 	C 	0.7184	0.6327	0.9905	0.099
Mof_C 	C 	0.4297	0.125	0.7633	-0.047
Mof_C 	C 	0.4294	0.2125	0.7618	-0.046
Mof_C 	C 	0.3536	0.2654	0.7705	0.329
Mof_C 	C 	0.3776	0.6078	0.8019	0.075
Mof_H 	H 	0.3205	0.6278	0.7855	0.023
Mof_C 	C 	0.6457	0.6445	0.0132	-0.159
Mof_H 	H 	0.5951	0.6686	0.9847	0.092
Mof_C 	C 	0.7896	0.576	0.1002	0.102
Mof_H 	H 	0.8401	0.5536	0.13	-0.01
Mof_C 	C 	0.6488	0.6201	0.0793	0.095
Mof_H 	H 	0.599	0.6278	0.0941	-0.005
Mof_C 	C 	0.7915	0.5971	0.035	-0.167
Mof_H 	H 	0.8416	0.5873	0.0211	0.098
Mof_C 	C 	0.3601	0.0702	0.7772	0.323
Mof_Ni	Ni	0.21744	0.94018	0.72301	1.057
Mof_S 	S 	0.8894	0.2183	0.63621	-0.041
Mof_S 	S 	0.775	0.1577	0.5932	-0.014
Mof_O 	O 	0.2159	0.7264	0.7311	-0.279
Mof_O 	O 	0.1335	0.8432	0.7223	-0.434
Mof_O 	O 	0.1957	0.5392	0.7741	-0.408
Mof_O 	O 	0.136	0.5545	0.6613	-0.278
Mof_N 	N 	0.111	0.0229	0.6944	-0.232
Mof_N 	N 	0.7804	0.086	0.3771	-0.244
Mof_C 	C 	0.0259	0.9976	0.6728	0.067
Mof_H 	H 	0.0149	0.9397	0.6708	0.006
Mof_C 	C 	0.9554	0.0508	0.6538	-0.139
Mof_H 	H 	0.8986	0.0296	0.6391	0.075
Mof_C 	C 	0.9708	0.1374	0.6569	0.086
Mof_C 	C 	0.0586	0.165	0.6803	-0.147
Mof_H 	H 	0.0717	0.2225	0.6833	0.082
Mof_C 	C 	0.7816	0.1327	0.5095	0.103
Mof_C 	C 	0.0703	0.625	0.7367	-0.047
Mof_C 	C 	0.0706	0.7125	0.7382	-0.046
Mof_C 	C 	0.1464	0.7654	0.7295	0.328
Mof_C 	C 	0.1224	0.1078	0.6981	0.075
Mof_H 	H 	0.1795	0.1278	0.7145	0.023
Mof_C 	C 	0.8543	0.1445	0.4868	-0.164
Mof_H 	H 	0.9049	0.1686	0.5153	0.095
Mof_C 	C 	0.7104	0.076	0.3998	0.104
Mof_H 	H 	0.6599	0.0536	0.37	-0.011
Mof_C 	C 	0.8512	0.1201	0.4207	0.098
Mof_H 	H 	0.901	0.1278	0.4059	-0.006
Mof_C 	C 	0.7085	0.0971	0.465	-0.17
Mof_H 	H 	0.6584	0.0873	0.4789	0.099
Mof_C 	C 	0.1399	0.5702	0.7228	0.323
Mof_Ni	Ni	0.71744	0.44018	0.72301	1.058
Mof_S 	S 	0.3894	0.7183	0.63621	-0.042
Mof_S 	S 	0.275	0.6577	0.5932	-0.014
Mof_O 	O 	0.7159	0.2264	0.7311	-0.278
Mof_O 	O 	0.6335	0.3432	0.7223	-0.433
Mof_O 	O 	0.6957	0.0392	0.7741	-0.406
Mof_O 	O 	0.636	0.0545	0.6613	-0.277
Mof_N 	N 	0.611	0.5229	0.6944	-0.235
Mof_N 	N 	0.2804	0.586	0.3771	-0.244
Mof_C 	C 	0.5259	0.4976	0.6728	0.077
Mof_H 	H 	0.5149	0.4397	0.6708	0.004
Mof_C 	C 	0.4554	0.5508	0.6538	-0.148
Mof_H 	H 	0.3986	0.5296	0.6391	0.077
Mof_C 	C 	0.4708	0.6374	0.6569	0.085
Mof_C 	C 	0.5586	0.665	0.6803	-0.144
Mof_H 	H 	0.5717	0.7225	0.6833	0.082
Mof_C 	C 	0.2816	0.6327	0.5095	0.103
Mof_C 	C 	0.5703	0.125	0.7367	-0.047
Mof_C 	C 	0.5706	0.2125	0.7382	-0.046
Mof_C 	C 	0.6464	0.2654	0.7295	0.329
Mof_C 	C 	0.6224	0.6078	0.6981	0.075
Mof_H 	H 	0.6795	0.6278	0.7145	0.023
Mof_C 	C 	0.3543	0.6445	0.4868	-0.164
Mof_H 	H 	0.4049	0.6686	0.5153	0.094
Mof_C 	C 	0.2104	0.576	0.3998	0.104
Mof_H 	H 	0.1599	0.5536	0.37	-0.011
Mof_C 	C 	0.3512	0.6201	0.4207	0.098
Mof_H 	H 	0.401	0.6278	0.4059	-0.006
Mof_C 	C 	0.2085	0.5971	0.465	-0.17
Mof_H 	H 	0.1584	0.5873	0.4789	0.099
Mof_C 	C 	0.6399	0.0702	0.7228	0.323
Mof_C 	C 	1.16075e-17	0.4178	0.25	-0.008
Mof_H 	H 	1.16075e-17	0.4767	0.25	0.033
Mof_C 	C 	1.53549e-33	0.2456	0.25	-0.015
Mof_H 	H 	1.53549e-33	0.1867	0.25	0.055
Mof_C 	C 	0.5	0.9178	0.25	-0.004
Mof_H 	H 	0.5	0.9767	0.25	0.033
Mof_C 	C 	0.5	0.7456	0.25	-0.011
Mof_H 	H 	0.5	0.6867	0.25	0.055
Mof_C 	C 	9.286e-17	0.5822	0.75	-0.009
Mof_H 	H 	9.286e-17	0.5233	0.75	0.033
Mof_C 	C 	9.286e-17	0.7544	0.75	-0.016
Mof_H 	H 	9.286e-17	0.8133	0.75	0.056
Mof_C 	C 	0.5	0.0822	0.75	-0.004
Mof_H 	H 	0.5	0.0233	0.75	0.033
Mof_C 	C 	0.5	0.2544	0.75	-0.011
Mof_H 	H 	0.5	0.3133	0.75	0.055
_end
