data_functionalizedCrystal
_audit_creation_method	'EQeq! by Chris Wilmer'
_symmetry_space_group_name_H-M	'P1'
_symmetry_Int_Tables_number	1
_symmetry_cell_setting	triclinic
loop_
_symmetry_equiv_pos_as_xyz
  x,y,z
_cell_length_a	9.341
_cell_length_b	11.5726
_cell_length_c	17.3954
_cell_angle_alpha	105.019
_cell_angle_beta	90
_cell_angle_gamma	113.802
loop_
_atom_site_label
_atom_site_type_symbol
_atom_site_fract_x
_atom_site_fract_y
_atom_site_fract_z
_atom_site_charge
Mof_Ce	Ce	0.66987	0.9724	0.92695	2.873
Mof_Ce	Ce	0.69747	0.0276	0.57305	2.915
Mof_Ce	Ce	0.33013	0.0276	0.07305	2.873
Mof_Ce	Ce	0.30253	0.9724	0.42695	2.915
Mof_Cu	Cu	0.09456	0.32992	0.1359	0.839
Mof_Cu	Cu	0.76464	0.67008	0.3641	0.841
Mof_Cu	Cu	0.90544	0.67008	0.8641	0.839
Mof_Cu	Cu	0.23536	0.32992	0.6359	0.841
Mof_H 	H 	0.5598	0.1972	0.7796	0.031
Mof_H 	H 	0.5005	0.2976	0.6916	-0.02
Mof_H 	H 	0.0913	0.2308	0.7683	0.01
Mof_H 	H 	0.1408	0.1346	0.8566	0.031
Mof_H 	H 	0.1849	0.7196	0.0549	0.008
Mof_H 	H 	0.0824	0.5638	0.1212	-0.003
Mof_H 	H 	0.2894	0.358	0.0023	-0.002
Mof_H 	H 	0.3898	0.5028	0.9284	0.046
Mof_H 	H 	0.3626	0.8028	0.7204	0.028
Mof_H 	H 	0.2029	0.7024	0.8084	-0.018
Mof_H 	H 	0.8605	0.7692	0.7317	0.019
Mof_H 	H 	0.0062	0.8654	0.6434	0.023
Mof_H 	H 	0.4653	0.2804	0.4451	0.006
Mof_H 	H 	0.5186	0.4362	0.3788	-0.003
Mof_H 	H 	0.9314	0.642	0.4977	-0.004
Mof_H 	H 	0.887	0.4972	0.5716	0.046
Mof_H 	H 	0.4402	0.8028	0.2204	0.031
Mof_H 	H 	0.4995	0.7024	0.3084	-0.02
Mof_H 	H 	0.9087	0.7692	0.2317	0.01
Mof_H 	H 	0.8592	0.8654	0.1434	0.031
Mof_H 	H 	0.8151	0.2804	0.9451	0.008
Mof_H 	H 	0.9176	0.4362	0.8788	-0.003
Mof_H 	H 	0.7106	0.642	0.9977	-0.002
Mof_H 	H 	0.6102	0.4972	0.0716	0.046
Mof_H 	H 	0.6374	0.1972	0.2796	0.028
Mof_H 	H 	0.7971	0.2976	0.1916	-0.018
Mof_H 	H 	0.1395	0.2308	0.2683	0.019
Mof_H 	H 	0.9938	0.1346	0.3566	0.023
Mof_H 	H 	0.5347	0.7196	0.5549	0.006
Mof_H 	H 	0.4814	0.5638	0.6212	-0.003
Mof_H 	H 	0.0686	0.358	0.5023	-0.004
Mof_H 	H 	0.113	0.5028	0.4284	0.046
Mof_C 	C 	0.3969	0.0818	0.8814	0.54
Mof_C 	C 	0.3511	0.1486	0.8263	-0.131
Mof_C 	C 	0.4627	0.2014	0.7772	-0.013
Mof_C 	C 	0.4267	0.2614	0.7241	0.016
Mof_C 	C 	0.186	0.222	0.7697	0.004
Mof_C 	C 	0.2151	0.1642	0.8224	0
Mof_C 	C 	0.3919	0.7438	0.95	0.401
Mof_C 	C 	0.3044	0.6308	0.986	-0.104
Mof_C 	C 	0.2084	0.6468	0.0431	-0.013
Mof_C 	C 	0.1482	0.5524	0.0827	0.006
Mof_C 	C 	0.2667	0.4314	0.0134	0.04
Mof_C 	C 	0.3306	0.5192	0.9692	-0.047
Mof_C 	C 	0.9802	0.9286	0.9762	0.261
Mof_C 	C 	0.7018	0.9198	0.7306	0.297
Mof_C 	C 	0.3151	0.9182	0.6186	0.548
Mof_C 	C 	0.2025	0.8514	0.6737	-0.144
Mof_C 	C 	0.2613	0.7986	0.7228	-0.003
Mof_C 	C 	0.1653	0.7386	0.7759	0.01
Mof_C 	C 	0.964	0.778	0.7303	-0.023
Mof_C 	C 	0.0509	0.8358	0.6776	0.026
Mof_C 	C 	0.6481	0.2562	0.55	0.403
Mof_C 	C 	0.6736	0.3692	0.514	-0.104
Mof_C 	C 	0.5616	0.3532	0.4569	-0.012
Mof_C 	C 	0.5958	0.4476	0.4173	0.007
Mof_C 	C 	0.8353	0.5686	0.4866	0.045
Mof_C 	C 	0.8114	0.4808	0.5308	-0.051
Mof_C 	C 	0.0516	0.0714	0.5238	0.268
Mof_C 	C 	0.782	0.0802	0.7694	0.308
Mof_C 	C 	0.6031	0.9182	0.1186	0.54
Mof_C 	C 	0.6489	0.8514	0.1737	-0.131
Mof_C 	C 	0.5373	0.7986	0.2228	-0.013
Mof_C 	C 	0.5733	0.7386	0.2759	0.016
Mof_C 	C 	0.814	0.778	0.2303	0.004
Mof_C 	C 	0.7849	0.8358	0.1776	0
Mof_C 	C 	0.6081	0.2562	0.05	0.401
Mof_C 	C 	0.6956	0.3692	0.014	-0.104
Mof_C 	C 	0.7916	0.3532	0.9569	-0.013
Mof_C 	C 	0.8518	0.4476	0.9173	0.006
Mof_C 	C 	0.7333	0.5686	0.9866	0.04
Mof_C 	C 	0.6694	0.4808	0.0308	-0.047
Mof_C 	C 	0.0198	0.0714	0.0238	0.261
Mof_C 	C 	0.2982	0.0802	0.2694	0.297
Mof_C 	C 	0.6849	0.0818	0.3814	0.548
Mof_C 	C 	0.7975	0.1486	0.3263	-0.144
Mof_C 	C 	0.7387	0.2014	0.2772	-0.003
Mof_C 	C 	0.8347	0.2614	0.2241	0.01
Mof_C 	C 	0.036	0.222	0.2697	-0.023
Mof_C 	C 	0.9491	0.1642	0.3224	0.026
Mof_C 	C 	0.3519	0.7438	0.45	0.403
Mof_C 	C 	0.3264	0.6308	0.486	-0.104
Mof_C 	C 	0.4384	0.6468	0.5431	-0.012
Mof_C 	C 	0.4042	0.5524	0.5827	0.007
Mof_C 	C 	0.1647	0.4314	0.5134	0.045
Mof_C 	C 	0.1886	0.5192	0.4692	-0.051
Mof_C 	C 	0.9484	0.9286	0.4762	0.268
Mof_C 	C 	0.218	0.9198	0.2306	0.308
Mof_N 	N 	0.2884	0.2668	0.7198	-0.24
Mof_N 	N 	0.177	0.444	0.0698	-0.248
Mof_N 	N 	0.0216	0.7332	0.7802	-0.231
Mof_N 	N 	0.733	0.556	0.4302	-0.248
Mof_N 	N 	0.7116	0.7332	0.2802	-0.24
Mof_N 	N 	0.823	0.556	0.9302	-0.248
Mof_N 	N 	0.9784	0.2668	0.2198	-0.231
Mof_N 	N 	0.267	0.444	0.5698	-0.248
Mof_O 	O 	0.4909	0.0368	0.8649	-0.654
Mof_O 	O 	0.3169	0.0786	0.9431	-0.585
Mof_O 	O 	0.487	0.728	0.9005	-0.527
Mof_O 	O 	0.3738	0.849	0.9722	-0.703
Mof_O 	O 	0.8624	0.8718	0.9237	-0.573
Mof_O 	O 	0.0675	0.8772	0.996	-0.535
Mof_O 	O 	0.6526	0.8558	0.7797	-0.511
Mof_O 	O 	0.7076	0.8824	0.6574	-0.51
Mof_O 	O 	0.4541	0.9632	0.6351	-0.665
Mof_O 	O 	0.2383	0.9214	0.5569	-0.593
Mof_O 	O 	0.759	0.272	0.5995	-0.53
Mof_O 	O 	0.5248	0.151	0.5278	-0.709
Mof_O 	O 	0.9906	0.1282	0.5763	-0.571
Mof_O 	O 	0.1903	0.1228	0.504	-0.548
Mof_O 	O 	0.7968	0.1442	0.7203	-0.515
Mof_O 	O 	0.8252	0.1176	0.8426	-0.505
Mof_O 	O 	0.5091	0.9632	0.1351	-0.654
Mof_O 	O 	0.6831	0.9214	0.0569	-0.585
Mof_O 	O 	0.513	0.272	0.0995	-0.527
Mof_O 	O 	0.6262	0.151	0.0278	-0.703
Mof_O 	O 	0.1376	0.1282	0.0763	-0.573
Mof_O 	O 	0.9325	0.1228	0.004	-0.535
Mof_O 	O 	0.3474	0.1442	0.2203	-0.511
Mof_O 	O 	0.2924	0.1176	0.3426	-0.51
Mof_O 	O 	0.5459	0.0368	0.3649	-0.665
Mof_O 	O 	0.7617	0.0786	0.4431	-0.593
Mof_O 	O 	0.241	0.728	0.4005	-0.53
Mof_O 	O 	0.4752	0.849	0.4722	-0.709
Mof_O 	O 	0.0094	0.8718	0.4237	-0.571
Mof_O 	O 	0.8097	0.8772	0.496	-0.548
Mof_O 	O 	0.2032	0.8558	0.2797	-0.515
Mof_O 	O 	0.1748	0.8824	0.1574	-0.505
_end
