data_functionalizedCrystal
_audit_creation_method	'EQeq! by Chris Wilmer'
_symmetry_space_group_name_H-M	'P1'
_symmetry_Int_Tables_number	1
_symmetry_cell_setting	triclinic
loop_
_symmetry_equiv_pos_as_xyz
  x,y,z
_cell_length_a	16.4559
_cell_length_b	20.6238
_cell_length_c	21.8274
_cell_angle_alpha	112.992
_cell_angle_beta	90
_cell_angle_gamma	90
loop_
_atom_site_label
_atom_site_type_symbol
_atom_site_fract_x
_atom_site_fract_y
_atom_site_fract_z
_atom_site_charge
Mof_Cu	Cu	0.75273	0.77871	0.06843	0.851
Mof_Cu	Cu	0.74727	0.27871	0.56843	0.851
Mof_Cu	Cu	0.81948	0.86221	0.42632	0.824
Mof_Cu	Cu	0.24727	0.22129	0.93157	0.851
Mof_Cu	Cu	0.31948	0.63779	0.07368	0.825
Mof_Cu	Cu	0.68052	0.36221	0.92632	0.825
Mof_Cu	Cu	0.18052	0.13779	0.57368	0.825
Mof_Cu	Cu	0.25273	0.72129	0.43157	0.852
Mof_H 	H 	0.2872	0.945	0.6787	0.044
Mof_H 	H 	0.7666	0.3891	0.717	-0.021
Mof_H 	H 	0.3787	0.3712	0.77	0.049
Mof_H 	H 	0.5211	0.2082	0.3302	0.04
Mof_H 	H 	0.0968	0.9809	0.5022	-0.023
Mof_H 	H 	0.993	0.2393	0.7351	-0.071
Mof_H 	H 	0.2128	0.445	0.1787	0.044
Mof_H 	H 	0.5638	0.7779	0.296	0.024
Mof_H 	H 	0.8935	0.5844	0.2016	0.127
Mof_H 	H 	0.5724	0.2252	0.4883	-0.017
Mof_H 	H 	0.411	0.7963	0.4046	-0.024
Mof_H 	H 	0.0252	0.5812	0.1581	-0.009
Mof_H 	H 	0.507	0.7393	0.2351	-0.073
Mof_H 	H 	0.4316	0.7992	0.2969	0.046
Mof_H 	H 	0.6922	0.4531	0.2021	0.048
Mof_H 	H 	0.0981	0.6303	0.4348	-0.023
Mof_H 	H 	0.1065	0.4156	0.7984	0.127
Mof_H 	H 	0.9362	0.2779	0.796	0.024
Mof_H 	H 	0.9097	0.2349	0.6254	-0.029
Mof_H 	H 	0.2547	0.9382	0.2403	0.061
Mof_H 	H 	0.7128	0.055	0.3213	0.045
Mof_H 	H 	0.4868	0.9239	0.3043	0.12
Mof_H 	H 	0.1786	0.0803	0.9417	-0.017
Mof_H 	H 	0.5392	0.0028	0.0973	0.034
Mof_H 	H 	0.9789	0.7082	0.8302	0.04
Mof_H 	H 	0.228	0.9444	0.3113	0.082
Mof_H 	H 	0.6213	0.6288	0.23	0.049
Mof_H 	H 	0.4748	0.0812	0.6581	-0.011
Mof_H 	H 	0.4362	0.2221	0.704	0.024
Mof_H 	H 	0.4532	0.4741	0.7969	0.045
Mof_H 	H 	0.4774	0.0721	0.0141	0.054
Mof_H 	H 	0.3072	0.3702	0.933	-0.017
Mof_H 	H 	0.8191	0.7951	0.2676	-0.03
Mof_H 	H 	0.552	0.4442	0.1821	0.038
Mof_H 	H 	0.5485	0.0549	0.3602	0.066
Mof_H 	H 	0.6292	0.6244	0.2998	0.034
Mof_H 	H 	0.5256	0.0913	0.2665	0.051
Mof_H 	H 	0.272	0.4444	0.8113	0.082
Mof_H 	H 	0.848	0.8825	0.5722	-0.031
Mof_H 	H 	0.4563	0.845	0.2576	0.13
Mof_H 	H 	0.4164	0.8142	0.2892	0.025
Mof_H 	H 	0.9774	0.4279	0.4859	0.058
Mof_H 	H 	0.5468	0.5259	0.2031	0.045
Mof_H 	H 	0.9713	0.732	0.3056	0.051
Mof_H 	H 	0.911	0.7037	0.0954	-0.025
Mof_H 	H 	0.8787	0.1288	0.73	0.05
Mof_H 	H 	0.0833	0.4937	0.2095	0.059
Mof_H 	H 	0.1928	0.8702	0.433	-0.017
Mof_H 	H 	0.8839	0.6168	0.7774	0.068
Mof_H 	H 	0.5036	0.7615	0.2586	0.136
Mof_H 	H 	0.5287	0.232	0.8056	0.051
Mof_H 	H 	0.5027	0.8298	0.6225	0.036
Mof_H 	H 	0.0764	0.5209	0.5348	0.062
Mof_H 	H 	0.9973	0.3298	0.1225	0.036
Mof_H 	H 	0.5252	0.9188	0.3419	-0.015
Mof_H 	H 	0.8214	0.9197	0.0583	-0.018
Mof_H 	H 	0.9276	0.7252	0.9883	-0.016
Mof_H 	H 	0.6786	0.4197	0.5583	-0.017
Mof_H 	H 	0.5836	0.1858	0.7108	0.025
Mof_H 	H 	0.4236	0.0209	0.0348	0.058
Mof_H 	H 	0.3191	0.7049	0.2324	-0.03
Mof_H 	H 	0.6435	0.4962	0.2669	0.044
Mof_H 	H 	0.0468	0.9741	0.2969	0.042
Mof_H 	H 	0.8072	0.1298	0.567	-0.017
Mof_H 	H 	0.8565	0.9962	0.7669	0.044
Mof_H 	H 	0.2453	0.4382	0.7403	0.061
Mof_H 	H 	0.9019	0.3697	0.5652	-0.023
Mof_H 	H 	0.0287	0.268	0.6944	0.051
Mof_H 	H 	0.3565	0.5038	0.7331	0.044
Mof_H 	H 	0.0485	0.4451	0.1398	0.065
Mof_H 	H 	0.9236	0.4791	0.4652	0.062
Mof_H 	H 	0.9608	0.5028	0.5973	0.037
Mof_H 	H 	0.297	0.2702	0.615	-0.03
Mof_H 	H 	0.1789	0.3919	0.1102	0.058
Mof_H 	H 	0.5833	0.0063	0.2905	0.06
Mof_H 	H 	0.448	0.5558	0.8179	0.038
Mof_H 	H 	0.007	0.7607	0.2649	-0.071
Mof_H 	H 	0.9563	0.655	0.2424	0.125
Mof_H 	H 	0.9316	0.7008	0.2031	0.043
Mof_H 	H 	0.6161	0.1168	0.2774	0.068
Mof_H 	H 	0.7547	0.5618	0.2597	0.061
Mof_H 	H 	0.0027	0.6702	0.8775	0.036
Mof_H 	H 	0.4608	0.9972	0.9027	0.04
Mof_H 	H 	0.3708	0.3756	0.7002	0.034
Mof_H 	H 	0.1922	0.0469	0.2979	0.048
Mof_H 	H 	0.2246	0.7295	0.5735	-0.018
Mof_H 	H 	0.5968	0.5191	0.9978	-0.017
Mof_H 	H 	0.6809	0.2951	0.7676	-0.03
Mof_H 	H 	0.4019	0.1303	0.9348	-0.023
Mof_H 	H 	0.9167	0.5063	0.7905	0.059
Mof_H 	H 	0.1292	0.8756	0.2002	0.033
Mof_H 	H 	0.0839	0.3449	0.7357	-0.046
Mof_H 	H 	0.4776	0.1311	0.6202	-0.015
Mof_H 	H 	0.4032	0.9496	0.925	0.048
Mof_H 	H 	0.4515	0.9451	0.6398	0.064
Mof_H 	H 	0.728	0.5556	0.1887	0.082
Mof_H 	H 	0.5684	0.2008	0.7031	0.044
Mof_H 	H 	0.8487	0.4374	0.9764	-0.018
Mof_H 	H 	0.589	0.2037	0.5954	-0.024
Mof_H 	H 	0.9515	0.5549	0.8602	0.065
Mof_H 	H 	0.1435	0.0038	0.2331	0.045
Mof_H 	H 	0.203	0.7702	0.115	-0.03
Mof_H 	H 	0.9164	0.6858	0.2108	0.024
Mof_H 	H 	0.7872	0.555	0.8213	0.044
Mof_H 	H 	0.2754	0.2295	0.0735	-0.018
Mof_H 	H 	0.5132	0.0761	0.6957	0.121
Mof_H 	H 	0.348	0.6175	0.9278	-0.031
Mof_H 	H 	0.5968	0.0504	0.075	0.041
Mof_H 	H 	0.0724	0.2748	0.0117	-0.017
Mof_H 	H 	0.3487	0.0626	0.5236	-0.018
Mof_H 	H 	0.7453	0.0618	0.7597	0.061
Mof_H 	H 	0.4161	0.8449	0.2357	-0.048
Mof_H 	H 	0.948	0.9442	0.6821	0.039
Mof_H 	H 	0.0437	0.345	0.7576	0.124
Mof_H 	H 	0.652	0.3825	0.0722	-0.031
Mof_H 	H 	0.9868	0.5761	0.1957	0.119
Mof_H 	H 	0.9032	0.5504	0.575	0.045
Mof_H 	H 	0.772	0.0556	0.6887	0.082
Mof_H 	H 	0.797	0.2298	0.885	-0.03
Mof_H 	H 	0.0392	0.4972	0.4027	0.037
Mof_H 	H 	0.1513	0.5626	0.0236	-0.018
Mof_H 	H 	0.4167	0.9937	0.7095	0.058
Mof_H 	H 	0.4276	0.7748	0.5117	-0.017
Mof_H 	H 	0.0684	0.2992	0.7969	0.043
Mof_H 	H 	0.6789	0.1081	0.3898	0.058
Mof_H 	H 	0.9744	0.5913	0.7665	0.051
Mof_H 	H 	0.9032	0.0191	0.4978	-0.013
Mof_H 	H 	0.5839	0.1551	0.7643	-0.047
Mof_H 	H 	0.9748	0.4188	0.8419	-0.009
Mof_H 	H 	0.4973	0.1702	0.3775	0.036
Mof_H 	H 	0.5226	0.9279	0.9859	0.062
Mof_H 	H 	0.7947	0.9655	0.3505	-0.026
Mof_H 	H 	0.8211	0.6081	0.8898	0.058
Mof_H 	H 	0.4744	0.9087	0.7335	0.05
Mof_H 	H 	0.7246	0.7705	0.9265	-0.018
Mof_H 	H 	0.0226	0.5721	0.5141	0.058
Mof_H 	H 	0.152	0.1175	0.4278	-0.031
Mof_H 	H 	0.2334	0.6109	0.283	-0.021
Mof_H 	H 	0.0256	0.4087	0.2335	0.051
Mof_H 	H 	0.3078	0.5469	0.7979	0.048
Mof_H 	H 	0.703	0.7298	0.385	-0.03
Mof_H 	H 	0.0968	0.4496	0.425	0.045
Mof_H 	H 	0.1161	0.3832	0.2226	0.068
Mof_H 	H 	0.1809	0.2049	0.7324	-0.03
Mof_H 	H 	0.7754	0.2705	0.4265	-0.018
Mof_H 	H 	0.0903	0.7651	0.3746	-0.029
Mof_H 	H 	0.0638	0.7221	0.204	0.024
Mof_H 	H 	0.0836	0.3142	0.7892	0.024
Mof_H 	H 	0.4789	0.7918	0.6698	0.04
Mof_H 	H 	0.2666	0.1109	0.783	-0.02
Mof_H 	H 	0.2947	0.5345	0.1495	-0.027
Mof_H 	H 	0.5981	0.8697	0.0652	-0.024
Mof_H 	H 	0.9964	0.2615	0.7586	0.136
Mof_H 	H 	0.3839	0.8832	0.7226	0.068
Mof_H 	H 	0.052	0.0558	0.3179	0.037
Mof_H 	H 	0.4032	0.4809	0.0022	-0.019
Mof_H 	H 	0.0036	0.7385	0.2414	0.136
Mof_H 	H 	0.6513	0.9374	0.4764	-0.018
Mof_H 	H 	0.3214	0.5803	0.4417	-0.017
Mof_H 	H 	0.9532	0.0259	0.7031	0.048
Mof_H 	H 	0.3935	0.9156	0.2984	0.128
Mof_H 	H 	0.7053	0.4655	0.8505	-0.027
Mof_H 	H 	0.6065	0.0844	0.7016	0.129
Mof_H 	H 	0.5437	0.155	0.7424	0.127
Mof_H 	H 	0.2053	0.0345	0.6495	-0.027
Mof_H 	H 	0.0211	0.2918	0.1698	0.04
Mof_H 	H 	0.8708	0.1244	0.7998	0.034
Mof_H 	H 	0.5224	0.8689	0.3798	-0.018
Mof_H 	H 	0.3211	0.8919	0.6102	0.058
Mof_H 	H 	0.5764	0.9791	0.9652	0.066
Mof_H 	H 	0.0224	0.6311	0.1202	-0.013
Mof_H 	H 	0.4713	0.768	0.1944	0.049
Mof_H 	H 	0.4097	0.2651	0.8746	-0.029
Mof_H 	H 	0.493	0.2607	0.7649	-0.071
Mof_H 	H 	0.9161	0.6551	0.2643	-0.046
Mof_H 	H 	0.5903	0.7349	0.1254	-0.029
Mof_H 	H 	0.6928	0.6298	0.067	-0.017
Mof_H 	H 	0.0132	0.4239	0.8043	0.118
Mof_H 	H 	0.8078	0.9531	0.7021	0.048
Mof_H 	H 	0.7334	0.8891	0.217	-0.021
Mof_H 	H 	0.1213	0.8712	0.27	0.048
Mof_H 	H 	0.089	0.2963	0.9046	-0.025
Mof_H 	H 	0.4964	0.2385	0.7414	0.136
Mof_H 	H 	0.9776	0.3689	0.8798	-0.013
Mof_C 	C 	0.6345	0.1753	0.59037	0.101
Mof_C 	C 	0.4495	0.841	0.2707	0.065
Mof_C 	C 	0.6582	0.49431	0.22314	-0.083
Mof_C 	C 	0.7492	0.4681	0.87825	0.104
Mof_C 	C 	0.1729	0.439	0.1442	-0.047
Mof_C 	C 	0.735	0.4217	0.55948	0.097
Mof_C 	C 	0.0242	0.3263	0.7893	-0.171
Mof_C 	C 	0.2508	0.5319	0.12175	0.104
Mof_C 	C 	0.70807	0.55955	0.23181	-0.121
Mof_C 	C 	0.5879	0.0524	0.3263	-0.095
Mof_C 	C 	0.0683	0.3911	0.2004	-0.108
Mof_C 	C 	0.9418	0.6025	0.1882	-0.323
Mof_C 	C 	0.4987	0.7938	0.2362	-0.135
Mof_C 	C 	0.7508	0.9681	0.37825	0.101
Mof_C 	C 	0.2242	0.76605	0.15273	0.092
Mof_C 	C 	0.6909	0.857	0.20805	0.099
Mof_C 	C 	0.7776	0.75485	0.92669	0.09
Mof_C 	C 	0.5242	0.1737	0.7107	-0.175
Mof_C 	C 	0.9585	0.6784	0.85192	-0.033
Mof_C 	C 	0.86696	0.92255	0.56704	0.082
Mof_C 	C 	0.0013	0.2938	0.7362	-0.14
Mof_C 	C 	0.8091	0.357	0.70805	0.099
Mof_C 	C 	0.5013	0.2062	0.7638	-0.138
Mof_C 	C 	0.6599	0.62619	0.2625	-0.029
Mof_C 	C 	0.8271	0.561	0.8558	-0.047
Mof_C 	C 	0.765	0.9217	0.05948	0.096
Mof_C 	C 	0.41866	0.51494	0.81768	-0.052
Mof_C 	C 	0.10261	0.0027	0.47234	0.103
Mof_C 	C 	0.2776	0.74515	0.57331	0.089
Mof_C 	C 	0.91866	0.98506	0.68232	-0.057
Mof_C 	C 	0.4221	0.9974	0.9363	-0.05
Mof_C 	C 	0.9317	0.6089	0.7996	-0.108
Mof_C 	C 	0.7242	0.73395	0.34727	0.092
Mof_C 	C 	0.63304	0.42255	0.06704	0.082
Mof_C 	C 	0.1453	0.6062	0.43635	0.097
Mof_C 	C 	0.2863	0.732	0.21694	0.102
Mof_C 	C 	0.8401	0.12619	0.7625	-0.031
Mof_C 	C 	0.7483	0.6341	0.07573	0.108
Mof_C 	C 	0.7224	0.25485	0.42669	0.09
Mof_C 	C 	0.5582	0.1025	0.6882	-0.327
Mof_C 	C 	0.6146	0.774	0.1578	0.101
Mof_C 	C 	0.7863	0.768	0.28306	0.102
Mof_C 	C 	0.08134	0.01494	0.31768	-0.047
Mof_C 	C 	0.1909	0.643	0.29195	0.099
Mof_C 	C 	0.39739	0.5027	0.97234	0.097
Mof_C 	C 	0.79193	0.05955	0.73181	-0.118
Mof_C 	C 	0.3866	0.7692	0.53853	0.097
Mof_C 	C 	0.7758	0.23395	0.84727	0.092
Mof_C 	C 	0.89739	0.9973	0.52766	0.087
Mof_C 	C 	0.2492	0.0319	0.62175	0.107
Mof_C 	C 	0.2137	0.232	0.71694	0.102
Mof_C 	C 	0.5505	0.159	0.7293	0.067
Mof_C 	C 	0.1582	0.00569	0.27686	-0.081
Mof_C 	C 	0.8655	0.6753	0.09037	0.1
Mof_C 	C 	0.9495	0.659	0.2293	0.067
Mof_C 	C 	0.5683	0.1089	0.2996	-0.108
Mof_C 	C 	0.8418	0.99431	0.72314	-0.084
Mof_C 	C 	0.3271	0.939	0.6442	-0.047
Mof_C 	C 	0.9758	0.6737	0.2107	-0.172
Mof_C 	C 	0.5099	0.1131	0.6473	0.137
Mof_C 	C 	0.0582	0.3975	0.8118	-0.322
Mof_C 	C 	0.0415	0.3216	0.14808	-0.033
Mof_C 	C 	0.8272	0.4538	0.9457	0.11
Mof_C 	C 	0.9987	0.7062	0.2638	-0.14
Mof_C 	C 	0.7517	0.1341	0.57573	0.108
Mof_C 	C 	0.4347	0.9262	0.392	0.021
Mof_C 	C 	0.031	0.7156	0.2381	0.016
Mof_C 	C 	0.2758	0.26605	0.65273	0.092
Mof_C 	C 	0.8547	0.3938	0.56365	0.097
Mof_C 	C 	0.36696	0.57745	0.93296	0.082
Mof_C 	C 	0.6728	0.9538	0.4457	0.106
Mof_C 	C 	0.3091	0.143	0.79195	0.099
Mof_C 	C 	0.4758	0.8263	0.2893	-0.183
Mof_C 	C 	0.0653	0.4262	0.892	0.027
Mof_C 	C 	0.1134	0.2692	0.03853	0.098
Mof_C 	C 	0.5387	0.9767	0.9984	-0.127
Mof_C 	C 	0.4121	0.9476	0.6737	-0.094
Mof_C 	C 	0.29193	0.44045	0.76819	-0.121
Mof_C 	C 	0.20807	0.94045	0.26819	-0.125
Mof_C 	C 	0.9901	0.6131	0.1473	0.13
Mof_C 	C 	0.8866	0.7308	0.96147	0.098
Mof_C 	C 	0.531	0.7844	0.2619	0.017
Mof_C 	C 	0.2517	0.3659	0.92427	0.108
Mof_C 	C 	0.4613	0.0233	0.0016	-0.094
Mof_C 	C 	0.60261	0.4973	0.02766	0.095
Mof_C 	C 	0.1146	0.726	0.3422	0.101
Mof_C 	C 	0.6134	0.2308	0.46147	0.098
Mof_C 	C 	0.4901	0.8869	0.3527	0.147
Mof_C 	C 	0.9221	0.5026	0.5637	-0.038
Mof_C 	C 	0.2483	0.8659	0.42427	0.108
Mof_C 	C 	0.9347	0.5738	0.108	0.026
Mof_C 	C 	0.0779	0.4974	0.4363	-0.038
Mof_C 	C 	0.235	0.0783	0.94052	0.097
Mof_C 	C 	0.0387	0.5233	0.5016	-0.11
Mof_C 	C 	0.1599	0.87381	0.2375	-0.028
Mof_C 	C 	0.3655	0.8247	0.40963	0.1
Mof_C 	C 	0.1345	0.3247	0.90963	0.101
Mof_C 	C 	0.58134	0.48506	0.18232	-0.052
Mof_C 	C 	0.6453	0.8938	0.06365	0.098
Mof_C 	C 	0.6729	0.061	0.3558	-0.047
Mof_C 	C 	0.1728	0.5462	0.0543	0.11
Mof_C 	C 	0.469	0.2156	0.7381	0.017
Mof_C 	C 	0.0879	0.4476	0.1737	-0.094
Mof_C 	C 	0.3854	0.226	0.8422	0.101
Mof_C 	C 	0.7137	0.268	0.78306	0.102
Mof_C 	C 	0.13304	0.07745	0.43296	0.082
Mof_C 	C 	0.4585	0.8216	0.64808	-0.033
Mof_C 	C 	0.0505	0.341	0.7707	0.067
Mof_C 	C 	0.3547	0.1062	0.93635	0.097
Mof_C 	C 	0.265	0.5783	0.44052	0.097
Mof_C 	C 	0.9121	0.5524	0.8263	-0.095
Mof_C 	C 	0.4418	0.8975	0.3118	-0.329
Mof_C 	C 	0.5415	0.1784	0.35192	-0.034
Mof_C 	C 	0.2224	0.24515	0.07331	0.09
Mof_C 	C 	0.3418	0.50569	0.77686	-0.083
Mof_C 	C 	0.8854	0.274	0.6578	0.101
Mof_C 	C 	0.0099	0.3869	0.8527	0.129
Mof_C 	C 	0.969	0.2844	0.7619	0.016
Mof_C 	C 	0.4317	0.8911	0.7004	-0.108
Mof_C 	C 	0.3272	0.0462	0.5543	0.11
Mof_C 	C 	0.9613	0.4767	0.4984	-0.111
Mof_C 	C 	0.5653	0.0738	0.608	0.026
Mof_C 	C 	0.3401	0.37381	0.7375	-0.029
Mof_C 	C 	0.5779	0.0026	0.0637	-0.025
Mof_N 	N 	0.2499	0.78906	0.25691	-0.098
Mof_N 	N 	0.63764	0.43349	0.01142	-0.257
Mof_N 	N 	0.81227	0.50866	0.88528	-0.097
Mof_N 	N 	0.79172	0.69073	0.07737	-0.249
Mof_N 	N 	0.6359	3.33423e-17	0.4289	-0.095
Mof_N 	N 	0.20828	0.30927	0.92263	-0.249
Mof_N 	N 	0.7109	0.0866	0.58712	-0.097
Mof_N 	N 	0.70956	0.69005	0.28597	-0.1
Mof_N 	N 	0.58628	0.8066	0.21778	-0.092
Mof_N 	N 	0.1348	0.38673	0.90472	-0.099
Mof_N 	N 	0.18603	0.24431	0.01778	-0.246
Mof_N 	N 	0.17762	0.26962	0.12668	-0.101
Mof_N 	N 	0.3641	0	0.5711	-0.096
Mof_N 	N 	0.07756	0.97443	0.41017	-0.112
Mof_N 	N 	0.31397	0.74431	0.51778	-0.246
Mof_N 	N 	0.29172	0.80927	0.42263	-0.249
Mof_N 	N 	0.2501	0.28906	0.75691	-0.098
Mof_N 	N 	0.7501	0.21094	0.74309	-0.098
Mof_N 	N 	0.8641	0.5	0.9289	-0.097
Mof_N 	N 	0.64714	0.95672	0.06227	-0.103
Mof_N 	N 	0.2891	0.9134	0.41288	-0.098
Mof_N 	N 	0.92244	0.02557	0.58983	-0.105
Mof_N 	N 	0.2247	0.5241	0.44184	-0.102
Mof_N 	N 	0.25594	0.06844	0.58454	-0.254
Mof_N 	N 	0.13523	0.639	0.24744	-0.099
Mof_N 	N 	0.22705	0.21548	0.6521	-0.263
Mof_N 	N 	0.18192	0.69645	0.35106	-0.25
Mof_N 	N 	0.82238	0.73038	0.87332	-0.102
Mof_N 	N 	0.10702	0.28527	0.10316	-0.099
Mof_N 	N 	0.36236	0.56651	0.98858	-0.257
Mof_N 	N 	0.31808	0.19645	0.85106	-0.249
Mof_N 	N 	0.77295	0.78452	0.3479	-0.263
Mof_N 	N 	0.2753	0.0241	0.94184	-0.101
Mof_N 	N 	0.18773	0.49134	0.11472	-0.097
Mof_N 	N 	0.31227	0.99134	0.61472	-0.1
Mof_N 	N 	0.7499	0.71094	0.24309	-0.098
Mof_N 	N 	0.28096	0.13065	0.93736	-0.249
Mof_N 	N 	0.32238	0.76962	0.62668	-0.102
Mof_N 	N 	0.91372	0.3066	0.71778	-0.091
Mof_N 	N 	0.71904	0.86935	0.06264	-0.25
Mof_N 	N 	0.72705	0.28452	0.8479	-0.263
Mof_N 	N 	0.7753	0.4759	0.55816	-0.102
Mof_N 	N 	0.7247	0.9759	0.05816	-0.103
Mof_N 	N 	0.85286	0.45672	0.56227	-0.1
Mof_N 	N 	0.63523	0.861	0.25256	-0.099
Mof_N 	N 	0.68192	0.80355	0.14894	-0.25
Mof_N 	N 	0.20956	0.80995	0.21403	-0.1
Mof_N 	N 	0.13764	0.06651	0.48858	-0.258
Mof_N 	N 	0.7891	0.5866	0.08712	-0.097
Mof_N 	N 	0.79044	0.19005	0.78597	-0.099
Mof_N 	N 	0.41372	0.1934	0.78222	-0.091
Mof_N 	N 	0.70828	0.19073	0.57737	-0.249
Mof_N 	N 	0.68773	0.00866	0.38528	-0.095
Mof_N 	N 	0.60702	0.21473	0.39684	-0.099
Mof_N 	N 	0.81808	0.30355	0.64894	-0.249
Mof_N 	N 	0.27295	0.71548	0.1521	-0.263
Mof_N 	N 	0.75594	0.43156	0.91546	-0.254
Mof_N 	N 	0.68603	0.25569	0.48222	-0.246
Mof_N 	N 	0.81397	0.75569	0.98222	-0.246
Mof_N 	N 	0.39298	0.78527	0.60316	-0.099
Mof_N 	N 	0.8652	0.61327	0.09528	-0.099
Mof_N 	N 	0.098	0.02381	0.38609	-0.095
Mof_N 	N 	0.1359	0.5	0.0711	-0.098
Mof_N 	N 	0.24406	0.56844	0.08454	-0.254
Mof_N 	N 	0.598	0.47619	0.11391	-0.095
Mof_N 	N 	0.42244	0.47443	0.91017	-0.108
Mof_N 	N 	0.3652	0.88673	0.40472	-0.098
Mof_N 	N 	0.402	0.52381	0.88609	-0.095
Mof_N 	N 	0.89298	0.71473	0.89684	-0.099
Mof_N 	N 	0.6348	0.11327	0.59528	-0.099
Mof_N 	N 	0.74406	0.93156	0.41546	-0.253
Mof_N 	N 	0.21904	0.63065	0.43736	-0.249
Mof_N 	N 	0.2109	0.4134	0.91288	-0.097
Mof_N 	N 	0.14714	0.54328	0.43773	-0.1
Mof_N 	N 	0.86477	0.361	0.75256	-0.099
Mof_N 	N 	0.08628	0.6934	0.28222	-0.091
Mof_N 	N 	0.29044	0.30995	0.71403	-0.1
Mof_N 	N 	0.36477	0.139	0.74744	-0.099
Mof_N 	N 	0.86236	0.93349	0.51142	-0.256
Mof_N 	N 	0.78096	0.36935	0.56264	-0.249
Mof_N 	N 	0.57756	0.52557	0.08983	-0.108
Mof_N 	N 	0.35286	0.04328	0.93773	-0.098
Mof_N 	N 	0.67762	0.23038	0.37332	-0.101
Mof_N 	N 	0.902	0.97619	0.61391	-0.096
_end
