# CIF file generated by openbabel 3.1.0, see https://openbabel.org
data_I
_chemical_name_common 'OYOSAX_clean'
_cell_length_a 7.5273
_cell_length_b 9.652
_cell_length_c 22.106
_cell_angle_alpha 90
_cell_angle_beta 90
_cell_angle_gamma 110.759
_space_group_name_H-M_alt 'P 1'
_space_group_name_Hall 'P 1'
loop_
    _symmetry_equiv_pos_as_xyz
    x,y,z
loop_
    _atom_site_label
    _atom_site_type_symbol
    _atom_site_fract_x
    _atom_site_fract_y
    _atom_site_fract_z
    _atom_site_occupancy
    Mn1      Mn       0.63094    0.65031    0.75367    1.000
    Mn2      Mn       0.86906    0.34969    0.25367    1.000
    Mn3      Mn       0.36906    0.34969    0.24633    1.000
    Mn4      Mn       0.13094    0.65031    0.74633    1.000
    H1       H        0.10350    0.62240    0.60730    1.000
    H2       H        0.55660    0.42840    0.56030    1.000
    H3       H        0.64290    0.37400    0.46650    1.000
    H4       H        0.77310    0.92730    0.90530    1.000
    H5       H        0.28070    0.87980    0.90720    1.000
    H6       H        0.66750    0.03300    0.99590    1.000
    H7       H        0.39650    0.37760    0.10730    1.000
    H8       H        0.94340    0.57160    0.06030    1.000
    H9       H        0.85710    0.62600    0.96650    1.000
    H10      H        0.72690    0.07270    0.40530    1.000
    H11      H        0.21930    0.12020    0.40720    1.000
    H12      H        0.83250    0.96700    0.49590    1.000
    H13      H        0.89650    0.37760    0.39270    1.000
    H14      H        0.44340    0.57160    0.43970    1.000
    H15      H        0.35710    0.62600    0.53350    1.000
    H16      H        0.22690    0.07270    0.09470    1.000
    H17      H        0.71930    0.12020    0.09280    1.000
    H18      H        0.33250    0.96700    0.00410    1.000
    H19      H        0.60350    0.62240    0.89270    1.000
    H20      H        0.05660    0.42840    0.93970    1.000
    H21      H        0.14290    0.37400    0.03350    1.000
    H22      H        0.27310    0.92730    0.59470    1.000
    H23      H        0.78070    0.87980    0.59280    1.000
    H24      H        0.16750    0.03300    0.50410    1.000
    C1       C        0.76070    0.56231    0.65478    1.000
    C2       C        0.82450    0.53013    0.59373    1.000
    C3       C        0.01210    0.57143    0.57910    1.000
    C4       C        0.68460    0.45540    0.55052    1.000
    C5       C        0.73640    0.42280    0.49454    1.000
    C6       C        0.07030    0.53797    0.52137    1.000
    C7       C        0.98230    0.83135    0.83371    1.000
    C8       C        0.02100    0.89740    0.89631    1.000
    C9       C        0.88590    0.93738    0.92524    1.000
    C10      C        0.91470    0.99381    0.98498    1.000
    C11      C        0.18980    0.90840    0.92666    1.000
    C12      C        0.77930    0.03910    0.01550    1.000
    C13      C        0.73930    0.43769    0.15478    1.000
    C14      C        0.67550    0.46987    0.09373    1.000
    C15      C        0.48790    0.42857    0.07910    1.000
    C16      C        0.81540    0.54460    0.05052    1.000
    C17      C        0.76360    0.57720    0.99454    1.000
    C18      C        0.42970    0.46203    0.02137    1.000
    C19      C        0.51770    0.16865    0.33371    1.000
    C20      C        0.47900    0.10260    0.39631    1.000
    C21      C        0.61410    0.06262    0.42524    1.000
    C22      C        0.58530    0.00619    0.48498    1.000
    C23      C        0.31020    0.09160    0.42666    1.000
    C24      C        0.72070    0.96090    0.51550    1.000
    C25      C        0.23930    0.43769    0.34522    1.000
    C26      C        0.17550    0.46987    0.40627    1.000
    C27      C        0.98790    0.42857    0.42090    1.000
    C28      C        0.31540    0.54460    0.44948    1.000
    C29      C        0.26360    0.57720    0.50546    1.000
    C30      C        0.92970    0.46203    0.47863    1.000
    C31      C        0.01770    0.16865    0.16629    1.000
    C32      C        0.97900    0.10260    0.10369    1.000
    C33      C        0.11410    0.06262    0.07476    1.000
    C34      C        0.08530    0.00619    0.01502    1.000
    C35      C        0.81020    0.09160    0.07334    1.000
    C36      C        0.22070    0.96090    0.98450    1.000
    C37      C        0.26070    0.56231    0.84522    1.000
    C38      C        0.32450    0.53013    0.90627    1.000
    C39      C        0.51210    0.57143    0.92090    1.000
    C40      C        0.18460    0.45540    0.94948    1.000
    C41      C        0.23640    0.42280    0.00546    1.000
    C42      C        0.57030    0.53797    0.97863    1.000
    C43      C        0.48230    0.83135    0.66629    1.000
    C44      C        0.52100    0.89740    0.60369    1.000
    C45      C        0.38590    0.93738    0.57476    1.000
    C46      C        0.41470    0.99381    0.51502    1.000
    C47      C        0.68980    0.90840    0.57334    1.000
    C48      C        0.27930    0.03910    0.48450    1.000
    O1       O        0.88320    0.63428    0.69412    1.000
    O2       O        0.58752    0.52099    0.66596    1.000
    O3       O        0.81471    0.79299    0.81536    1.000
    O4       O        0.12023    0.82073    0.80495    1.000
    O5       O        0.61680    0.36572    0.19412    1.000
    O6       O        0.91248    0.47901    0.16596    1.000
    O7       O        0.68529    0.20701    0.31536    1.000
    O8       O        0.37977    0.17927    0.30495    1.000
    O9       O        0.11680    0.36572    0.30588    1.000
    O10      O        0.41248    0.47901    0.33404    1.000
    O11      O        0.18529    0.20701    0.18464    1.000
    O12      O        0.87977    0.17927    0.19505    1.000
    O13      O        0.38320    0.63428    0.80588    1.000
    O14      O        0.08752    0.52099    0.83404    1.000
    O15      O        0.31471    0.79299    0.68464    1.000
    O16      O        0.62023    0.82073    0.69505    1.000
