# CIF file generated by openbabel 3.1.0, see https://openbabel.org
data_I
_chemical_name_common 'image0'
_cell_length_a 7.763
_cell_length_b 19.3892
_cell_length_c 17.8634
_cell_angle_alpha 90
_cell_angle_beta 100.466
_cell_angle_gamma 90
_space_group_name_H-M_alt 'P 1'
_space_group_name_Hall 'P 1'
loop_
    _symmetry_equiv_pos_as_xyz
    x,y,z
loop_
    _atom_site_label
    _atom_site_type_symbol
    _atom_site_fract_x
    _atom_site_fract_y
    _atom_site_fract_z
    _atom_site_occupancy
    Tb1      Tb       0.25452    0.46926    0.01471    1.000
    Ag1      Ag       0.30211    0.00592    0.02492    1.000
    O1       O        0.48960    0.56910    0.01801    1.000
    O2       O        0.23530    0.59100    0.04646    1.000
    O3       O        0.23520    0.51879    0.88724    1.000
    O4       O        0.99040    0.52840    0.92909    1.000
    N1       N        0.39380    0.91897    0.09352    1.000
    N2       N        0.82740    0.58281    0.55002    1.000
    C1       C        0.49550    0.92566    0.16224    1.000
    H1       H        0.53580    0.96930    0.17860    1.000
    C2       C        0.54190    0.87050    0.20903    1.000
    H2       H        0.61250    0.87660    0.25650    1.000
    C3       C        0.48320    0.80559    0.18532    1.000
    H3       H        0.51460    0.76760    0.21660    1.000
    C4       C        0.37760    0.79727    0.11480    1.000
    C5       C        0.33670    0.85509    0.07091    1.000
    H4       H        0.26630    0.85010    0.02320    1.000
    C6       C        0.30660    0.72795    0.08690    1.000
    H5       H        0.21530    0.73410    0.04250    1.000
    H6       H        0.25460    0.70590    0.12620    1.000
    C7       C        0.44890    0.68145    0.06628    1.000
    H7       H        0.49680    0.70290    0.02550    1.000
    H8       H        0.54280    0.67760    0.11000    1.000
    C8       C        0.38660    0.61092    0.04186    1.000
    C9       C        0.79940    0.65064    0.53861    1.000
    H9       H        0.72970    0.66520    0.49350    1.000
    C10      C        0.86970    0.69904    0.59093    1.000
    H10      H        0.84950    0.74570    0.58100    1.000
    C11      C        0.97080    0.67799    0.65867    1.000
    H11      H        0.01720    0.71030    0.69530    1.000
    C12      C        0.00280    0.60825    0.67182    1.000
    C13      C        0.92750    0.56320    0.61554    1.000
    H12      H        0.94760    0.51630    0.62370    1.000
    C14      C        0.10750    0.58085    0.74517    1.000
    H13      H        0.20070    0.61300    0.76460    1.000
    H14      H        0.16070    0.53720    0.73560    1.000
    C15      C        0.99150    0.57069    0.80395    1.000
    H15      H        0.94610    0.61530    0.81560    1.000
    H16      H        0.89240    0.54230    0.78170    1.000
    C16      C        0.07910    0.53805    0.87671    1.000
    Tb2      Tb       0.74548    0.96926    0.48529    1.000
    Ag2      Ag       0.69789    0.50592    0.47508    1.000
    O5       O        0.51040    0.06910    0.48199    1.000
    O6       O        0.76470    0.09100    0.45354    1.000
    O7       O        0.76480    0.01879    0.61276    1.000
    O8       O        0.00960    0.02840    0.57091    1.000
    N3       N        0.60620    0.41897    0.40648    1.000
    N4       N        0.17260    0.08281    0.94998    1.000
    C17      C        0.50450    0.42566    0.33776    1.000
    H17      H        0.46420    0.46930    0.32140    1.000
    C18      C        0.45810    0.37050    0.29097    1.000
    H18      H        0.38750    0.37660    0.24350    1.000
    C19      C        0.51680    0.30559    0.31468    1.000
    H19      H        0.48540    0.26760    0.28340    1.000
    C20      C        0.62240    0.29727    0.38520    1.000
    C21      C        0.66330    0.35509    0.42909    1.000
    H20      H        0.73370    0.35010    0.47680    1.000
    C22      C        0.69340    0.22795    0.41310    1.000
    H21      H        0.78470    0.23410    0.45750    1.000
    H22      H        0.74540    0.20590    0.37380    1.000
    C23      C        0.55110    0.18145    0.43372    1.000
    H23      H        0.50320    0.20290    0.47450    1.000
    H24      H        0.45720    0.17760    0.39000    1.000
    C24      C        0.61340    0.11092    0.45814    1.000
    C25      C        0.20060    0.15064    0.96139    1.000
    H25      H        0.27030    0.16520    0.00650    1.000
    C26      C        0.13030    0.19904    0.90907    1.000
    H26      H        0.15050    0.24570    0.91900    1.000
    C27      C        0.02920    0.17799    0.84133    1.000
    H27      H        0.98280    0.21030    0.80470    1.000
    C28      C        0.99720    0.10825    0.82818    1.000
    C29      C        0.07250    0.06320    0.88446    1.000
    H28      H        0.05240    0.01630    0.87630    1.000
    C30      C        0.89250    0.08085    0.75483    1.000
    H29      H        0.79930    0.11300    0.73540    1.000
    H30      H        0.83930    0.03720    0.76440    1.000
    C31      C        0.00850    0.07069    0.69605    1.000
    H31      H        0.05390    0.11530    0.68440    1.000
    H32      H        0.10760    0.04230    0.71830    1.000
    C32      C        0.92090    0.03805    0.62329    1.000
    Tb3      Tb       0.74548    0.53074    0.98529    1.000
    Ag3      Ag       0.69789    0.99408    0.97508    1.000
    O9       O        0.51040    0.43090    0.98199    1.000
    O10      O        0.76470    0.40900    0.95354    1.000
    O11      O        0.76480    0.48121    0.11276    1.000
    O12      O        0.00960    0.47160    0.07091    1.000
    N5       N        0.60620    0.08103    0.90648    1.000
    N6       N        0.17260    0.41719    0.44998    1.000
    C33      C        0.50450    0.07434    0.83776    1.000
    H33      H        0.46420    0.03070    0.82140    1.000
    C34      C        0.45810    0.12950    0.79097    1.000
    H34      H        0.38750    0.12340    0.74350    1.000
    C35      C        0.51680    0.19441    0.81468    1.000
    H35      H        0.48540    0.23240    0.78340    1.000
    C36      C        0.62240    0.20273    0.88520    1.000
    C37      C        0.66330    0.14491    0.92909    1.000
    H36      H        0.73370    0.14990    0.97680    1.000
    C38      C        0.69340    0.27205    0.91310    1.000
    H37      H        0.78470    0.26590    0.95750    1.000
    H38      H        0.74540    0.29410    0.87380    1.000
    C39      C        0.55110    0.31855    0.93372    1.000
    H39      H        0.50320    0.29710    0.97450    1.000
    H40      H        0.45720    0.32240    0.89000    1.000
    C40      C        0.61340    0.38908    0.95814    1.000
    C41      C        0.20060    0.34936    0.46139    1.000
    H41      H        0.27030    0.33480    0.50650    1.000
    C42      C        0.13030    0.30096    0.40907    1.000
    H42      H        0.15050    0.25430    0.41900    1.000
    C43      C        0.02920    0.32201    0.34133    1.000
    H43      H        0.98280    0.28970    0.30470    1.000
    C44      C        0.99720    0.39175    0.32818    1.000
    C45      C        0.07250    0.43680    0.38446    1.000
    H44      H        0.05240    0.48370    0.37630    1.000
    C46      C        0.89250    0.41915    0.25483    1.000
    H45      H        0.79930    0.38700    0.23540    1.000
    H46      H        0.83930    0.46280    0.26440    1.000
    C47      C        0.00850    0.42931    0.19605    1.000
    H47      H        0.05390    0.38470    0.18440    1.000
    H48      H        0.10760    0.45770    0.21830    1.000
    C48      C        0.92090    0.46195    0.12329    1.000
    Tb4      Tb       0.25452    0.03074    0.51471    1.000
    Ag4      Ag       0.30211    0.49408    0.52492    1.000
    O13      O        0.48960    0.93090    0.51801    1.000
    O14      O        0.23530    0.90900    0.54646    1.000
    O15      O        0.23520    0.98121    0.38724    1.000
    O16      O        0.99040    0.97160    0.42909    1.000
    N7       N        0.39380    0.58103    0.59352    1.000
    N8       N        0.82740    0.91719    0.05002    1.000
    C49      C        0.49550    0.57434    0.66224    1.000
    H49      H        0.53580    0.53070    0.67860    1.000
    C50      C        0.54190    0.62950    0.70903    1.000
    H50      H        0.61250    0.62340    0.75650    1.000
    C51      C        0.48320    0.69441    0.68532    1.000
    H51      H        0.51460    0.73240    0.71660    1.000
    C52      C        0.37760    0.70273    0.61480    1.000
    C53      C        0.33670    0.64491    0.57091    1.000
    H52      H        0.26630    0.64990    0.52320    1.000
    C54      C        0.30660    0.77205    0.58690    1.000
    H53      H        0.21530    0.76590    0.54250    1.000
    H54      H        0.25460    0.79410    0.62620    1.000
    C55      C        0.44890    0.81855    0.56628    1.000
    H55      H        0.49680    0.79710    0.52550    1.000
    H56      H        0.54280    0.82240    0.61000    1.000
    C56      C        0.38660    0.88908    0.54186    1.000
    C57      C        0.79940    0.84936    0.03861    1.000
    H57      H        0.72970    0.83480    0.99350    1.000
    C58      C        0.86970    0.80096    0.09093    1.000
    H58      H        0.84950    0.75430    0.08100    1.000
    C59      C        0.97080    0.82201    0.15867    1.000
    H59      H        0.01720    0.78970    0.19530    1.000
    C60      C        0.00280    0.89175    0.17182    1.000
    C61      C        0.92750    0.93680    0.11554    1.000
    H60      H        0.94760    0.98370    0.12370    1.000
    C62      C        0.10750    0.91915    0.24517    1.000
    H61      H        0.20070    0.88700    0.26460    1.000
    H62      H        0.16070    0.96280    0.23560    1.000
    C63      C        0.99150    0.92931    0.30395    1.000
    H63      H        0.94610    0.88470    0.31560    1.000
    H64      H        0.89240    0.95770    0.28170    1.000
    C64      C        0.07910    0.96195    0.37671    1.000
