# CIF file generated by openbabel 3.1.0, see https://openbabel.org
data_I
_chemical_name_common 'AFIPAH_clean'
_cell_length_a 9.1664
_cell_length_b 9.1664
_cell_length_c 14.969
_cell_angle_alpha 79.9664
_cell_angle_beta 79.9667
_cell_angle_gamma 115.529
_space_group_name_H-M_alt 'P 1'
_space_group_name_Hall 'P 1'
loop_
    _symmetry_equiv_pos_as_xyz
    x,y,z
loop_
    _atom_site_label
    _atom_site_type_symbol
    _atom_site_fract_x
    _atom_site_fract_y
    _atom_site_fract_z
    _atom_site_occupancy
    La1      La       0.25916    0.50916    0.48168    1.000
    La2      La       0.49084    0.74084    0.01832    1.000
    La3      La       0.74084    0.49084    0.51832    1.000
    La4      La       0.50916    0.25916    0.98168    1.000
    H1       H        0.30800    0.86800    0.57000    1.000
    H2       H        0.12200    0.06200    0.57000    1.000
    H3       H        0.13200    0.69200    0.93000    1.000
    H4       H        0.93800    0.87800    0.93000    1.000
    H5       H        0.69200    0.13200    0.43000    1.000
    H6       H        0.87800    0.93800    0.43000    1.000
    H7       H        0.86800    0.30800    0.07000    1.000
    H8       H        0.06200    0.12200    0.07000    1.000
    C1       C        0.05917    0.75137    0.55826    1.000
    C2       C        0.21284    0.89444    0.56432    1.000
    C3       C        0.38257    0.19037    0.55826    1.000
    C4       C        0.22284    0.04124    0.56432    1.000
    C5       C        0.24863    0.94083    0.94174    1.000
    C6       C        0.10556    0.78716    0.93568    1.000
    C7       C        0.80963    0.61743    0.94174    1.000
    C8       C        0.95876    0.77716    0.93568    1.000
    C9       C        0.94083    0.24863    0.44174    1.000
    C10      C        0.78716    0.10556    0.43568    1.000
    C11      C        0.61743    0.80963    0.44174    1.000
    C12      C        0.77716    0.95876    0.43568    1.000
    C13      C        0.75137    0.05917    0.05826    1.000
    C14      C        0.89444    0.21284    0.06432    1.000
    C15      C        0.19037    0.38257    0.05826    1.000
    C16      C        0.04124    0.22284    0.06432    1.000
    C17      C        0.32460    0.67540    0.25000    1.000
    C18      C        0.42540    0.57460    0.25000    1.000
    C19      C        0.67540    0.32460    0.75000    1.000
    C20      C        0.57460    0.42540    0.75000    1.000
    O1       O        0.23841    0.66119    0.32840    1.000
    O2       O        0.07629    0.63451    0.53260    1.000
    O3       O        0.91780    0.74802    0.57558    1.000
    O4       O        0.43319    0.51041    0.32840    1.000
    O5       O        0.39111    0.33289    0.53260    1.000
    O6       O        0.50662    0.17640    0.57558    1.000
    O7       O        0.33881    0.76159    0.17160    1.000
    O8       O        0.36549    0.92371    0.96740    1.000
    O9       O        0.25198    0.08220    0.92442    1.000
    O10      O        0.48959    0.56681    0.17160    1.000
    O11      O        0.66711    0.60889    0.96740    1.000
    O12      O        0.82360    0.49338    0.92442    1.000
    O13      O        0.76159    0.33881    0.67160    1.000
    O14      O        0.92371    0.36549    0.46740    1.000
    O15      O        0.08220    0.25198    0.42442    1.000
    O16      O        0.56681    0.48959    0.67160    1.000
    O17      O        0.60889    0.66711    0.46740    1.000
    O18      O        0.49338    0.82360    0.42442    1.000
    O19      O        0.66119    0.23841    0.82840    1.000
    O20      O        0.63451    0.07629    0.03260    1.000
    O21      O        0.74802    0.91780    0.07558    1.000
    O22      O        0.51041    0.43319    0.82840    1.000
    O23      O        0.33289    0.39111    0.03260    1.000
    O24      O        0.17640    0.50662    0.07558    1.000
