data_functionalizedCrystal
_audit_creation_method	'EQeq! by Chris Wilmer'
_symmetry_space_group_name_H-M	'P1'
_symmetry_Int_Tables_number	1
_symmetry_cell_setting	triclinic
loop_
_symmetry_equiv_pos_as_xyz
  x,y,z
_cell_length_a	14.625
_cell_length_b	17.066
_cell_length_c	17.066
_cell_angle_alpha	90
_cell_angle_beta	90
_cell_angle_gamma	90
loop_
_atom_site_label
_atom_site_type_symbol
_atom_site_fract_x
_atom_site_fract_y
_atom_site_fract_z
_atom_site_charge
Mof_V 	V 	0.37249	0.61042	0.62079	1.813
Mof_V 	V 	0.5861	0.53214	0.68691	1.806
Mof_V 	V 	0.4119	0.44858	0.682	1.81
Mof_V 	V 	0.26659	0.42903	0.56454	1.792
Mof_V 	V 	0.37249	0.38958	0.37921	1.813
Mof_V 	V 	0.5861	0.46786	0.31309	1.806
Mof_V 	V 	0.4119	0.55142	0.318	1.81
Mof_V 	V 	0.26659	0.57097	0.43546	1.792
Mof_V 	V 	0.62751	0.62079	0.38958	1.814
Mof_V 	V 	0.4139	0.68691	0.46786	1.807
Mof_V 	V 	0.5881	0.682	0.55142	1.811
Mof_V 	V 	0.73341	0.56454	0.57097	1.793
Mof_V 	V 	0.62751	0.37921	0.61042	1.814
Mof_V 	V 	0.4139	0.31309	0.53214	1.807
Mof_V 	V 	0.5881	0.318	0.44858	1.811
Mof_V 	V 	0.73341	0.43546	0.42903	1.793
Mof_V 	V 	0.87249	0.11042	0.87921	1.811
Mof_V 	V 	0.0861	0.03214	0.81309	1.821
Mof_V 	V 	0.9119	0.94858	0.818	1.794
Mof_V 	V 	0.76659	0.92903	0.93546	1.763
Mof_V 	V 	0.87249	0.88958	0.12079	1.811
Mof_V 	V 	0.0861	0.96786	0.18691	1.794
Mof_V 	V 	0.9119	0.05142	0.182	1.82
Mof_V 	V 	0.76659	0.07097	0.06454	1.809
Mof_V 	V 	0.12751	0.12079	0.11042	1.814
Mof_V 	V 	0.9139	0.18691	0.03214	1.817
Mof_V 	V 	0.0881	0.182	0.94858	1.798
Mof_V 	V 	0.23341	0.06454	0.92903	1.784
Mof_V 	V 	0.12751	0.87921	0.88958	1.81
Mof_V 	V 	0.9139	0.81309	0.96786	1.79
Mof_V 	V 	0.0881	0.818	0.05142	1.825
Mof_V 	V 	0.23341	0.93546	0.07097	1.784
Mof_Co	Co	0.25	0.74525	0.75475	1.168
Mof_Co	Co	0.25	0.25475	0.24525	1.169
Mof_Co	Co	0.75	0.75475	0.25475	1.168
Mof_Co	Co	0.75	0.24525	0.74525	1.169
Mof_H 	H 	0.4497	0.6852	0.786	-0.018
Mof_H 	H 	0.5533	0.6819	0.8831	0.092
Mof_H 	H 	0.3538	0.7275	0.0377	0.151
Mof_H 	H 	0.2525	0.7413	0.9316	-0.04
Mof_H 	H 	0.5546	0.6847	0.2231	-0.017
Mof_H 	H 	0.4526	0.6704	0.1232	0.108
Mof_H 	H 	0.6438	0.7477	0.9757	0.029
Mof_H 	H 	0.7367	0.7588	0.0768	-0.001
Mof_H 	H 	0.4497	0.3148	0.214	-0.011
Mof_H 	H 	0.5533	0.3181	0.1169	0.094
Mof_H 	H 	0.3538	0.2725	0.9623	0.007
Mof_H 	H 	0.2525	0.2587	0.0684	0.012
Mof_H 	H 	0.5546	0.3153	0.7769	-0.025
Mof_H 	H 	0.4526	0.3296	0.8768	0.11
Mof_H 	H 	0.6438	0.2523	0.0243	0.188
Mof_H 	H 	0.7367	0.2412	0.9232	-0.069
Mof_H 	H 	0.5503	0.786	0.3148	-0.018
Mof_H 	H 	0.4467	0.8831	0.3181	0.093
Mof_H 	H 	0.6462	0.0377	0.2725	0.155
Mof_H 	H 	0.7475	0.9316	0.2587	-0.042
Mof_H 	H 	0.4454	0.2231	0.3153	-0.017
Mof_H 	H 	0.5474	0.1232	0.3296	0.107
Mof_H 	H 	0.3562	0.9757	0.2523	0.022
Mof_H 	H 	0.2633	0.0768	0.2412	0.003
Mof_H 	H 	0.5503	0.214	0.6852	-0.011
Mof_H 	H 	0.4467	0.1169	0.6819	0.094
Mof_H 	H 	0.6462	0.9623	0.7275	0.013
Mof_H 	H 	0.7475	0.0684	0.7413	0.009
Mof_H 	H 	0.4454	0.7769	0.6847	-0.025
Mof_H 	H 	0.5474	0.8768	0.6704	0.109
Mof_H 	H 	0.3562	0.0243	0.7477	0.182
Mof_H 	H 	0.2633	0.9232	0.7588	-0.066
Mof_H 	H 	0.9497	0.1852	0.714	-0.025
Mof_H 	H 	0.0533	0.1819	0.6169	0.123
Mof_H 	H 	0.8538	0.2275	0.4623	0.084
Mof_H 	H 	0.7525	0.2413	0.5684	-0.016
Mof_H 	H 	0.0546	0.1847	0.2769	-0.01
Mof_H 	H 	0.9526	0.1704	0.3768	0.083
Mof_H 	H 	0.1438	0.2477	0.5243	0.106
Mof_H 	H 	0.2367	0.2588	0.4232	-0.031
Mof_H 	H 	0.9497	0.8148	0.286	-0.025
Mof_H 	H 	0.0533	0.8181	0.3831	0.116
Mof_H 	H 	0.8538	0.7725	0.5377	0.081
Mof_H 	H 	0.7525	0.7587	0.4316	-0.017
Mof_H 	H 	0.0546	0.8153	0.7231	-0.012
Mof_H 	H 	0.9526	0.8296	0.6232	0.081
Mof_H 	H 	0.1438	0.7523	0.4757	0.104
Mof_H 	H 	0.2367	0.7412	0.5768	-0.032
Mof_H 	H 	0.0503	0.286	0.1852	-0.003
Mof_H 	H 	0.9467	0.3831	0.1819	0.067
Mof_H 	H 	0.1462	0.5377	0.2275	0.083
Mof_H 	H 	0.2475	0.4316	0.2413	-0.013
Mof_H 	H 	0.9454	0.7231	0.1847	-0.031
Mof_H 	H 	0.0474	0.6232	0.1704	0.139
Mof_H 	H 	0.8562	0.4757	0.2477	0.108
Mof_H 	H 	0.7633	0.5768	0.2588	-0.035
Mof_H 	H 	0.0503	0.714	0.8148	-0.005
Mof_H 	H 	0.9467	0.6169	0.8181	0.066
Mof_H 	H 	0.1462	0.4623	0.7725	0.08
Mof_H 	H 	0.2475	0.5684	0.7587	-0.015
Mof_H 	H 	0.9454	0.2769	0.8153	-0.031
Mof_H 	H 	0.0474	0.3768	0.8296	0.13
Mof_H 	H 	0.8562	0.5243	0.7523	0.105
Mof_H 	H 	0.7633	0.4232	0.7412	-0.035
Mof_C 	C 	0.4302	0.6959	0.8368	0.096
Mof_C 	C 	0.4927	0.6937	0.895	-0.148
Mof_C 	C 	0.4685	0.7085	0.9713	0.059
Mof_C 	C 	0.3748	0.7221	0.9865	-0.232
Mof_C 	C 	0.3131	0.7275	0.9224	0.11
Mof_C 	C 	0.5733	0.6968	0.1724	0.096
Mof_C 	C 	0.5109	0.6893	0.1125	-0.147
Mof_C 	C 	0.5341	0.7094	0.0373	0.085
Mof_C 	C 	0.6233	0.7346	0.0256	-0.049
Mof_C 	C 	0.6782	0.7398	0.0867	0.057
Mof_C 	C 	0.4302	0.3041	0.1632	0.082
Mof_C 	C 	0.4927	0.3063	0.105	-0.116
Mof_C 	C 	0.4685	0.2915	0.0287	0.046
Mof_C 	C 	0.3748	0.2779	0.0135	0.004
Mof_C 	C 	0.3131	0.2725	0.0776	0.021
Mof_C 	C 	0.5733	0.3032	0.8276	0.118
Mof_C 	C 	0.5109	0.3107	0.8875	-0.187
Mof_C 	C 	0.5341	0.2906	0.9627	0.115
Mof_C 	C 	0.6233	0.2654	0.9744	-0.32
Mof_C 	C 	0.6782	0.2602	0.9133	0.195
Mof_C 	C 	0.5698	0.8368	0.3041	0.098
Mof_C 	C 	0.5073	0.895	0.3063	-0.148
Mof_C 	C 	0.5315	0.9713	0.2915	0.062
Mof_C 	C 	0.6252	0.9865	0.2779	-0.237
Mof_C 	C 	0.6869	0.9224	0.2725	0.115
Mof_C 	C 	0.4267	0.1724	0.3032	0.096
Mof_C 	C 	0.4891	0.1125	0.3107	-0.144
Mof_C 	C 	0.4659	0.0373	0.2906	0.083
Mof_C 	C 	0.3767	0.0256	0.2654	-0.033
Mof_C 	C 	0.3218	0.0867	0.2602	0.052
Mof_C 	C 	0.5698	0.1632	0.6959	0.081
Mof_C 	C 	0.5073	0.105	0.6937	-0.119
Mof_C 	C 	0.5315	0.0287	0.7085	0.046
Mof_C 	C 	0.6252	0.0135	0.7221	-0.009
Mof_C 	C 	0.6869	0.0776	0.7275	0.023
Mof_C 	C 	0.4267	0.8276	0.6968	0.116
Mof_C 	C 	0.4891	0.8875	0.6893	-0.186
Mof_C 	C 	0.4659	0.9627	0.7094	0.112
Mof_C 	C 	0.3767	0.9744	0.7346	-0.312
Mof_C 	C 	0.3218	0.9133	0.7398	0.188
Mof_C 	C 	0.9302	0.1959	0.6632	0.115
Mof_C 	C 	0.9927	0.1937	0.605	-0.179
Mof_C 	C 	0.9685	0.2085	0.5287	0.062
Mof_C 	C 	0.8748	0.2221	0.5135	-0.124
Mof_C 	C 	0.8131	0.2275	0.5776	0.074
Mof_C 	C 	0.0733	0.1968	0.3276	0.09
Mof_C 	C 	0.0109	0.1893	0.3875	-0.117
Mof_C 	C 	0.0341	0.2094	0.4627	0.096
Mof_C 	C 	0.1233	0.2346	0.4744	-0.169
Mof_C 	C 	0.1782	0.2398	0.4133	0.122
Mof_C 	C 	0.9302	0.8041	0.3368	0.106
Mof_C 	C 	0.9927	0.8063	0.395	-0.177
Mof_C 	C 	0.9685	0.7915	0.4713	0.057
Mof_C 	C 	0.8748	0.7779	0.4865	-0.126
Mof_C 	C 	0.8131	0.7725	0.4224	0.068
Mof_C 	C 	0.0733	0.8032	0.6724	0.085
Mof_C 	C 	0.0109	0.8107	0.6125	-0.126
Mof_C 	C 	0.0341	0.7906	0.5373	0.091
Mof_C 	C 	0.1233	0.7654	0.5256	-0.171
Mof_C 	C 	0.1782	0.7602	0.5867	0.117
Mof_C 	C 	0.0698	0.3368	0.1959	0.07
Mof_C 	C 	0.0073	0.395	0.1937	-0.083
Mof_C 	C 	0.0315	0.4713	0.2085	0.05
Mof_C 	C 	0.1252	0.4865	0.2221	-0.109
Mof_C 	C 	0.1869	0.4224	0.2275	0.067
Mof_C 	C 	0.9267	0.6724	0.1968	0.131
Mof_C 	C 	0.9891	0.6125	0.1893	-0.211
Mof_C 	C 	0.9659	0.5373	0.2094	0.109
Mof_C 	C 	0.8767	0.5256	0.2346	-0.186
Mof_C 	C 	0.8218	0.5867	0.2398	0.132
Mof_C 	C 	0.0698	0.6632	0.8041	0.067
Mof_C 	C 	0.0073	0.605	0.8063	-0.092
Mof_C 	C 	0.0315	0.5287	0.7915	0.047
Mof_C 	C 	0.1252	0.5135	0.7779	-0.113
Mof_C 	C 	0.1869	0.5776	0.7725	0.062
Mof_C 	C 	0.9267	0.3276	0.8032	0.121
Mof_C 	C 	0.9891	0.3875	0.8107	-0.208
Mof_C 	C 	0.9659	0.4627	0.7906	0.101
Mof_C 	C 	0.8767	0.4744	0.7654	-0.186
Mof_C 	C 	0.8218	0.4133	0.7602	0.125
Mof_N 	N 	0.341	0.7129	0.8482	-0.237
Mof_N 	N 	0.3403	0.8386	0.7208	-0.257
Mof_N 	N 	0.341	0.2871	0.1518	-0.215
Mof_N 	N 	0.3403	0.1614	0.2792	-0.226
Mof_N 	N 	0.659	0.8482	0.2871	-0.237
Mof_N 	N 	0.6597	0.7208	0.1614	-0.228
Mof_N 	N 	0.659	0.1518	0.7129	-0.217
Mof_N 	N 	0.6597	0.2792	0.8386	-0.258
Mof_N 	N 	0.841	0.2129	0.6518	-0.231
Mof_N 	N 	0.8403	0.3386	0.7792	-0.247
Mof_N 	N 	0.841	0.7871	0.3482	-0.232
Mof_N 	N 	0.8403	0.6614	0.2208	-0.246
Mof_N 	N 	0.159	0.3482	0.2129	-0.221
Mof_N 	N 	0.1597	0.2208	0.3386	-0.237
Mof_N 	N 	0.159	0.6518	0.7871	-0.223
Mof_N 	N 	0.1597	0.7792	0.6614	-0.238
Mof_O 	O 	0.3173	0.6682	0.6811	-0.694
Mof_O 	O 	0.4613	0.557	0.6854	-0.895
Mof_O 	O 	0.3243	0.5054	0.6244	-0.973
Mof_O 	O 	0.4636	0.6773	0.5745	-0.913
Mof_O 	O 	0.3201	0.6252	0.5179	-0.95
Mof_O 	O 	0.3748	0.4306	0.7676	-0.572
Mof_O 	O 	0.1776	0.3867	0.5997	-0.55
Mof_O 	O 	0.6211	0.5396	0.7742	-0.573
Mof_O 	O 	0.6224	0.6211	0.6348	-0.895
Mof_O 	O 	0.3173	0.3318	0.3189	-0.694
Mof_O 	O 	0.4613	0.443	0.3146	-0.893
Mof_O 	O 	0.3243	0.4946	0.3756	-0.973
Mof_O 	O 	0.4636	0.3227	0.4255	-0.912
Mof_O 	O 	0.3201	0.3748	0.4821	-0.95
Mof_O 	O 	0.3748	0.5694	0.2324	-0.564
Mof_O 	O 	0.1776	0.6133	0.4003	-0.551
Mof_O 	O 	0.6211	0.4604	0.2258	-0.563
Mof_O 	O 	0.6224	0.3789	0.3652	-0.894
Mof_O 	O 	0.6827	0.6811	0.3318	-0.694
Mof_O 	O 	0.5387	0.6854	0.443	-0.895
Mof_O 	O 	0.6757	0.6244	0.4946	-0.974
Mof_O 	O 	0.5364	0.5745	0.3227	-0.912
Mof_O 	O 	0.6799	0.5179	0.3748	-0.95
Mof_O 	O 	0.6252	0.7676	0.5694	-0.572
Mof_O 	O 	0.8224	0.5997	0.6133	-0.557
Mof_O 	O 	0.3789	0.7742	0.4604	-0.572
Mof_O 	O 	0.3776	0.6348	0.3789	-0.894
Mof_O 	O 	0.6827	0.3189	0.6682	-0.694
Mof_O 	O 	0.5387	0.3146	0.557	-0.893
Mof_O 	O 	0.6757	0.3756	0.5054	-0.974
Mof_O 	O 	0.5364	0.4255	0.6773	-0.913
Mof_O 	O 	0.6799	0.4821	0.6252	-0.95
Mof_O 	O 	0.6252	0.2324	0.4306	-0.564
Mof_O 	O 	0.8224	0.4003	0.3867	-0.557
Mof_O 	O 	0.3789	0.2258	0.5396	-0.563
Mof_O 	O 	0.3776	0.3652	0.6211	-0.894
Mof_O 	O 	0.8173	0.1682	0.8189	-0.695
Mof_O 	O 	0.9613	0.057	0.8146	-0.892
Mof_O 	O 	0.8243	0.0054	0.8756	-0.959
Mof_O 	O 	0.9636	0.1773	0.9255	-0.941
Mof_O 	O 	0.8201	0.1252	0.9821	-0.986
Mof_O 	O 	0.8748	0.9306	0.7324	-0.589
Mof_O 	O 	0.6776	0.8867	0.9003	-0.582
Mof_O 	O 	0.1211	0.0396	0.7258	-0.542
Mof_O 	O 	0.1224	0.1211	0.8652	-0.893
Mof_O 	O 	0.8173	0.8318	0.1811	-0.695
Mof_O 	O 	0.9613	0.943	0.1854	-0.922
Mof_O 	O 	0.8243	0.9946	0.1244	-1.01
Mof_O 	O 	0.9636	0.8227	0.0745	-0.911
Mof_O 	O 	0.8201	0.8748	0.0179	-0.936
Mof_O 	O 	0.8748	0.0694	0.2676	-0.553
Mof_O 	O 	0.6776	0.1133	0.0997	-0.537
Mof_O 	O 	0.1211	0.9604	0.2742	-0.587
Mof_O 	O 	0.1224	0.8789	0.1348	-0.894
Mof_O 	O 	0.1827	0.1811	0.1682	-0.692
Mof_O 	O 	0.0387	0.1854	0.057	-0.869
Mof_O 	O 	0.1757	0.1244	0.0054	-0.94
Mof_O 	O 	0.0364	0.0745	0.1773	-0.888
Mof_O 	O 	0.1799	0.0179	0.1252	-0.917
Mof_O 	O 	0.1252	0.2676	0.9306	-0.585
Mof_O 	O 	0.3224	0.0997	0.8867	-0.562
Mof_O 	O 	0.8789	0.2742	0.0396	-0.551
Mof_O 	O 	0.8776	0.1348	0.1211	-0.89
Mof_O 	O 	0.1827	0.8189	0.8318	-0.697
Mof_O 	O 	0.0387	0.8146	0.943	-0.909
Mof_O 	O 	0.1757	0.8756	0.9946	-1.019
Mof_O 	O 	0.0364	0.9255	0.8227	-0.928
Mof_O 	O 	0.1799	0.9821	0.8748	-0.995
Mof_O 	O 	0.1252	0.7324	0.0694	-0.545
Mof_O 	O 	0.3224	0.9003	0.1133	-0.562
Mof_O 	O 	0.8789	0.7258	0.9604	-0.592
Mof_O 	O 	0.8776	0.8652	0.8789	-0.913
Mof_O 	O 	0.1986	0.5	0.5	-0.652
Mof_O 	O 	0.8014	0.5	0.5	-0.657
Mof_O 	O 	0.6986	0	-0	-0.595
Mof_O 	O 	0.3014	0	-0	-0.592
Mof_Cl	Cl	-0	0	-0	-0.926
Mof_Cl	Cl	0.5	0.5	0.5	-1.025
_end
