data_functionalizedCrystal
_audit_creation_method	'EQeq! by Chris Wilmer'
_symmetry_space_group_name_H-M	'P1'
_symmetry_Int_Tables_number	1
_symmetry_cell_setting	triclinic
loop_
_symmetry_equiv_pos_as_xyz
  x,y,z
_cell_length_a	7.281
_cell_length_b	10.903
_cell_length_c	15.148
_cell_angle_alpha	90
_cell_angle_beta	90
_cell_angle_gamma	90
loop_
_atom_site_label
_atom_site_type_symbol
_atom_site_fract_x
_atom_site_fract_y
_atom_site_fract_z
_atom_site_charge
Mof_Mn	Mn	0.52668	0.09925	0.78153	0.883
Mof_Mn	Mn	0.97332	0.59925	0.28153	0.894
Mof_Mn	Mn	0.47332	0.59925	0.21847	0.895
Mof_Mn	Mn	0.02668	0.09925	0.71847	0.873
Mof_H 	H 	0.702	0.498	0.7997	0.198
Mof_H 	H 	0.9034	0.9377	0.3817	0.15
Mof_H 	H 	0.6896	0.8558	0.9997	0.057
Mof_H 	H 	0.1529	0.0523	0.9843	0.02
Mof_H 	H 	0.6529	0.0523	0.5157	0.015
Mof_H 	H 	0.6608	0.578	0.8861	0.2
Mof_H 	H 	0.3104	0.3558	0.0003	0.026
Mof_H 	H 	0.4495	0.3506	0.6986	0.093
Mof_H 	H 	0.8392	0.078	0.3861	0.1
Mof_H 	H 	0.8471	0.5523	0.0157	0.072
Mof_H 	H 	0.4034	0.9377	0.1183	0.15
Mof_H 	H 	0.798	0.998	0.2997	0.141
Mof_H 	H 	0.3392	0.078	0.1139	0.096
Mof_H 	H 	0.298	0.998	0.2003	0.141
Mof_H 	H 	0.202	0.498	0.7003	0.208
Mof_H 	H 	0.8104	0.3558	0.4997	0.045
Mof_H 	H 	0.9495	0.3506	0.8014	0.081
Mof_H 	H 	0.0505	0.8506	0.1986	0.066
Mof_H 	H 	0.3471	0.5523	0.4843	0.096
Mof_H 	H 	0.1896	0.8558	0.5003	0.043
Mof_H 	H 	0.5966	0.4377	0.8817	0.209
Mof_H 	H 	0.0966	0.4377	0.6183	0.218
Mof_H 	H 	0.5505	0.8506	0.3014	0.064
Mof_H 	H 	0.1608	0.578	0.6139	0.209
Mof_C 	C 	0.7643	0.25375	0.65515	0.356
Mof_C 	C 	0.3562	0.01549	0.6057	0.384
Mof_C 	C 	0.5157	0.87867	0.35839	-0.073
Mof_C 	C 	0.5754	0.99795	0.48383	-0.003
Mof_C 	C 	0.6457	0.33937	0.60623	-0.045
Mof_C 	C 	0.1438	0.51549	0.1057	0.425
Mof_C 	C 	0.7357	0.75375	0.15515	0.375
Mof_C 	C 	0.9122	0.96183	0.97998	-0.058
Mof_C 	C 	0.8562	0.01549	0.8943	0.38
Mof_C 	C 	0.3543	0.83937	0.39377	-0.094
Mof_C 	C 	0.4843	0.37867	0.64161	-0.171
Mof_C 	C 	0.1457	0.33937	0.89377	-0.083
Mof_C 	C 	0.1976	0.38195	0.97512	0.028
Mof_C 	C 	0.5878	0.46183	0.47998	-0.056
Mof_C 	C 	0.6976	0.38195	0.52488	-0.019
Mof_C 	C 	0.371	0.45727	0.59743	0.25
Mof_C 	C 	0.871	0.45727	0.90257	0.208
Mof_C 	C 	0.6438	0.51549	0.3943	0.407
Mof_C 	C 	0.0157	0.87867	0.14161	-0.08
Mof_C 	C 	0.8543	0.83937	0.10623	-0.083
Mof_C 	C 	0.3076	0.9961	0.13574	-0.364
Mof_C 	C 	0.3024	0.88195	0.47512	0.027
Mof_C 	C 	0.129	0.95727	0.09743	0.119
Mof_C 	C 	0.6924	0.4961	0.86426	-0.597
Mof_C 	C 	0.0878	0.46183	0.02002	-0.103
Mof_C 	C 	0.8024	0.88195	0.02488	-0.003
Mof_C 	C 	0.4246	0.49795	0.51617	-0.168
Mof_C 	C 	0.4122	0.96183	0.52002	-0.079
Mof_C 	C 	0.9843	0.37867	0.85839	-0.128
Mof_C 	C 	0.2357	0.75375	0.34485	0.379
Mof_C 	C 	0.1924	0.4961	0.63574	-0.635
Mof_C 	C 	0.0754	0.99795	0.01617	-0.021
Mof_C 	C 	0.629	0.95727	0.40257	0.111
Mof_C 	C 	0.2643	0.25375	0.84485	0.37
Mof_C 	C 	0.9246	0.49795	0.98383	-0.108
Mof_C 	C 	0.8076	0.9961	0.36426	-0.365
Mof_O 	O 	0.09206	0.71787	0.37833	-0.388
Mof_O 	O 	0.7811	0.72301	0.23115	-0.425
Mof_O 	O 	0.19217	0.01315	0.62474	-0.438
Mof_O 	O 	0.40794	0.21787	0.87833	-0.39
Mof_O 	O 	0.02059	0.56146	0.15017	-0.441
Mof_O 	O 	0.80783	0.51315	0.37526	-0.43
Mof_O 	O 	0.97941	0.06146	0.84983	-0.429
Mof_O 	O 	0.59206	0.71787	0.12167	-0.388
Mof_O 	O 	0.90794	0.21787	0.62167	-0.384
Mof_O 	O 	0.7189	0.22301	0.73115	-0.42
Mof_O 	O 	0.52059	0.56146	0.34983	-0.436
Mof_O 	O 	0.47941	0.06146	0.65017	-0.436
Mof_O 	O 	0.2811	0.72301	0.26885	-0.426
Mof_O 	O 	0.69217	0.01315	0.87526	-0.434
Mof_O 	O 	0.2189	0.22301	0.76885	-0.426
Mof_O 	O 	0.30783	0.51315	0.12474	-0.435
_end
