# CIF file generated by openbabel 3.1.0, see https://openbabel.org
data_I
_chemical_name_common 'EMIYEF_clean'
_cell_length_a 9.5193
_cell_length_b 10.9534
_cell_length_c 11.4935
_cell_angle_alpha 91.786
_cell_angle_beta 113.8
_cell_angle_gamma 105.469
_space_group_name_H-M_alt 'P 1'
_space_group_name_Hall 'P 1'
loop_
    _symmetry_equiv_pos_as_xyz
    x,y,z
loop_
    _atom_site_label
    _atom_site_type_symbol
    _atom_site_fract_x
    _atom_site_fract_y
    _atom_site_fract_z
    _atom_site_occupancy
    Co1      Co       0.00000    0.50000    0.50000    1.000
    Mo1      Mo       0.41889    0.62111    0.74983    1.000
    Mo2      Mo       0.51151    0.64734    0.06347    1.000
    Mo3      Mo       0.52394    0.92865    0.86002    1.000
    Mo4      Mo       0.58111    0.37889    0.25017    1.000
    Mo5      Mo       0.48849    0.35266    0.93653    1.000
    Mo6      Mo       0.47606    0.07135    0.13998    1.000
    H1       H        0.88980    0.57060    0.22200    1.000
    H2       H        0.25060    0.76320    0.54070    1.000
    H3       H        0.33140    0.91960    0.43210    1.000
    H4       H        0.18710    0.90230    0.21170    1.000
    H5       H        0.94970    0.58240    0.73500    1.000
    H6       H        0.79860    0.68120    0.39480    1.000
    H7       H        0.67110    0.80810    0.45010    1.000
    H8       H        0.68060    0.82060    0.65570    1.000
    H9       H        0.13060    0.76820    0.89620    1.000
    H10      H        0.19870    0.77850    0.03900    1.000
    H11      H        0.11020    0.42940    0.77800    1.000
    H12      H        0.74940    0.23680    0.45930    1.000
    H13      H        0.66860    0.08040    0.56790    1.000
    H14      H        0.81290    0.09770    0.78830    1.000
    H15      H        0.05030    0.41760    0.26500    1.000
    H16      H        0.20140    0.31880    0.60520    1.000
    H17      H        0.32890    0.19190    0.54990    1.000
    H18      H        0.31940    0.17940    0.34430    1.000
    H19      H        0.86940    0.23180    0.10380    1.000
    H20      H        0.80130    0.22150    0.96100    1.000
    C1       C        0.91150    0.71530    0.05700    1.000
    C2       C        0.02010    0.73320    0.19440    1.000
    C3       C        0.98010    0.64170    0.26480    1.000
    C4       C        0.19230    0.75420    0.45200    1.000
    C5       C        0.24090    0.84930    0.38710    1.000
    C6       C        0.15560    0.83990    0.25680    1.000
    C7       C        0.82360    0.70080    0.84770    1.000
    C8       C        0.81770    0.70180    0.71740    1.000
    C9       C        0.89260    0.62830    0.67710    1.000
    C10      C        0.80420    0.68650    0.47760    1.000
    C11      C        0.72650    0.76280    0.50980    1.000
    C12      C        0.73240    0.77060    0.63160    1.000
    C13      C        0.08850    0.28470    0.94300    1.000
    C14      C        0.97990    0.26680    0.80560    1.000
    C15      C        0.01990    0.35830    0.73520    1.000
    C16      C        0.80770    0.24580    0.54800    1.000
    C17      C        0.75910    0.15070    0.61290    1.000
    C18      C        0.84440    0.16010    0.74320    1.000
    C19      C        0.17640    0.29920    0.15230    1.000
    C20      C        0.18230    0.29820    0.28260    1.000
    C21      C        0.10740    0.37170    0.32290    1.000
    C22      C        0.19580    0.31350    0.52240    1.000
    C23      C        0.27350    0.23720    0.49020    1.000
    C24      C        0.26760    0.22940    0.36840    1.000
    N1       N        0.75440    0.68210    0.00700    1.000
    N2       N        0.69950    0.67400    0.87550    1.000
    N3       N        0.95980    0.72750    0.95860    1.000
    N4       N        0.11680    0.76260    0.96550    1.000
    N5       N        0.06520    0.65030    0.39200    1.000
    N6       N        0.88650    0.62050    0.55890    1.000
    N7       N        0.24560    0.31790    0.99300    1.000
    N8       N        0.30050    0.32600    0.12450    1.000
    N9       N        0.04020    0.27250    0.04140    1.000
    N10      N        0.88320    0.23740    0.03450    1.000
    N11      N        0.93480    0.34970    0.60800    1.000
    N12      N        0.11350    0.37950    0.44110    1.000
    O1       O        0.42980    0.51030    0.88550    1.000
    O2       O        0.47640    0.78970    0.72090    1.000
    O3       O        0.20810    0.58000    0.66940    1.000
    O4       O        0.46680    0.74410    0.92830    1.000
    O5       O        0.57020    0.48970    0.11450    1.000
    O6       O        0.52360    0.21030    0.27910    1.000
    O7       O        0.79190    0.42000    0.33060    1.000
    O8       O        0.53320    0.25590    0.07170    1.000
    O9       O        0.50000    0.00000    0.00000    1.000
