data_functionalizedCrystal
_audit_creation_method	'EQeq! by Chris Wilmer'
_symmetry_space_group_name_H-M	'P1'
_symmetry_Int_Tables_number	1
_symmetry_cell_setting	triclinic
loop_
_symmetry_equiv_pos_as_xyz
  x,y,z
_cell_length_a	8.733
_cell_length_b	16.283
_cell_length_c	22.98
_cell_angle_alpha	90
_cell_angle_beta	90
_cell_angle_gamma	90
loop_
_atom_site_label
_atom_site_type_symbol
_atom_site_fract_x
_atom_site_fract_y
_atom_site_fract_z
_atom_site_charge
Mof_Co	Co	0.72887	0.75	0.75	1.156
Mof_Co	Co	0.77113	0.75	0.25	1.156
Mof_Co	Co	0.27113	0.25	0.25	1.156
Mof_Co	Co	0.22887	0.25	0.75	1.156
Mof_H 	H 	0.6102	0.5695	0.6895	0.026
Mof_H 	H 	0.4265	0.4803	0.7402	0.052
Mof_H 	H 	0.469	0.6907	0.8288	0.006
Mof_H 	H 	0.2206	0.6638	0.8639	0.072
Mof_H 	H 	0.0753	0.6237	0.9441	0.089
Mof_H 	H 	0.1913	0.3879	0.9148	0.093
Mof_H 	H 	0.345	0.428	0.8368	0.062
Mof_H 	H 	0.1365	0.5896	0.6605	0.067
Mof_H 	H 	0.8801	0.7424	0.5618	0.105
Mof_H 	H 	0.8898	0.5695	0.3105	0.027
Mof_H 	H 	0.0735	0.4803	0.2598	0.053
Mof_H 	H 	0.031	0.6907	0.1712	0.006
Mof_H 	H 	0.2794	0.6638	0.1361	0.072
Mof_H 	H 	0.4247	0.6237	0.0559	0.089
Mof_H 	H 	0.3087	0.3879	0.0852	0.093
Mof_H 	H 	0.155	0.428	0.1632	0.063
Mof_H 	H 	0.3635	0.5896	0.3395	0.067
Mof_H 	H 	0.6199	0.7424	0.4382	0.106
Mof_H 	H 	0.8898	0.9305	0.1895	0.026
Mof_H 	H 	0.0735	0.0197	0.2402	0.054
Mof_H 	H 	0.031	0.8093	0.3288	0.006
Mof_H 	H 	0.2794	0.8362	0.3639	0.072
Mof_H 	H 	0.4247	0.8763	0.4441	0.089
Mof_H 	H 	0.3087	0.1121	0.4148	0.093
Mof_H 	H 	0.155	0.072	0.3368	0.062
Mof_H 	H 	0.3635	0.9104	0.1605	0.067
Mof_H 	H 	0.6199	0.7576	0.0618	0.106
Mof_H 	H 	0.6102	0.9305	0.8105	0.027
Mof_H 	H 	0.4265	0.0197	0.7598	0.053
Mof_H 	H 	0.469	0.8093	0.6712	0.006
Mof_H 	H 	0.2206	0.8362	0.6361	0.072
Mof_H 	H 	0.0753	0.8763	0.5559	0.088
Mof_H 	H 	0.1913	0.1121	0.5852	0.093
Mof_H 	H 	0.345	0.072	0.6632	0.063
Mof_H 	H 	0.1365	0.9104	0.8395	0.067
Mof_H 	H 	0.8801	0.7576	0.9382	0.105
Mof_H 	H 	0.3898	0.4305	0.3105	0.027
Mof_H 	H 	0.5735	0.5197	0.2598	0.053
Mof_H 	H 	0.531	0.3093	0.1712	0.006
Mof_H 	H 	0.7794	0.3362	0.1361	0.072
Mof_H 	H 	0.9247	0.3763	0.0559	0.089
Mof_H 	H 	0.8087	0.6121	0.0852	0.093
Mof_H 	H 	0.655	0.572	0.1632	0.062
Mof_H 	H 	0.8635	0.4104	0.3395	0.067
Mof_H 	H 	0.1199	0.2576	0.4382	0.105
Mof_H 	H 	0.1102	0.4305	0.6895	0.027
Mof_H 	H 	0.9265	0.5197	0.7402	0.053
Mof_H 	H 	0.969	0.3093	0.8288	0.006
Mof_H 	H 	0.7206	0.3362	0.8639	0.072
Mof_H 	H 	0.5753	0.3763	0.9441	0.089
Mof_H 	H 	0.6913	0.6121	0.9148	0.093
Mof_H 	H 	0.845	0.572	0.8368	0.063
Mof_H 	H 	0.6365	0.4104	0.6605	0.067
Mof_H 	H 	0.3801	0.2576	0.5618	0.106
Mof_H 	H 	0.1102	0.0695	0.8105	0.026
Mof_H 	H 	0.9265	0.9803	0.7598	0.054
Mof_H 	H 	0.969	0.1907	0.6712	0.006
Mof_H 	H 	0.7206	0.1638	0.6361	0.072
Mof_H 	H 	0.5753	0.1237	0.5559	0.089
Mof_H 	H 	0.6913	0.8879	0.5852	0.093
Mof_H 	H 	0.845	0.928	0.6632	0.062
Mof_H 	H 	0.6365	0.0896	0.8395	0.067
Mof_H 	H 	0.3801	0.2424	0.9382	0.106
Mof_H 	H 	0.3898	0.0695	0.1895	0.027
Mof_H 	H 	0.5735	0.9803	0.2402	0.053
Mof_H 	H 	0.531	0.1907	0.3288	0.006
Mof_H 	H 	0.7794	0.1638	0.3639	0.072
Mof_H 	H 	0.9247	0.1237	0.4441	0.088
Mof_H 	H 	0.8087	0.8879	0.4148	0.093
Mof_H 	H 	0.655	0.928	0.3368	0.063
Mof_H 	H 	0.8635	0.0896	0.1605	0.067
Mof_H 	H 	0.1199	0.2424	0.0618	0.105
Mof_C 	C 	0.5582	0.5826	0.7246	0.019
Mof_C 	C 	0.4566	0.5339	0.7518	-0.007
Mof_C 	C 	0.4813	0.6492	0.8002	0.094
Mof_C 	C 	0.301	0.5501	0.8443	0.089
Mof_C 	C 	0.2174	0.6077	0.875	-0.055
Mof_C 	C 	0.1291	0.5837	0.922	-0.075
Mof_C 	C 	0.119	0.502	0.9367	0.113
Mof_C 	C 	0.199	0.4444	0.9049	-0.081
Mof_C 	C 	0.2902	0.468	0.8586	-0.056
Mof_C 	C 	0.8973	0.6924	0.6714	0.283
Mof_C 	C 	0.9952	0.6717	0.6199	-0.016
Mof_C 	C 	0.1175	0.6169	0.6247	-0.06
Mof_C 	C 	0.2114	0.6027	0.5769	0.03
Mof_C 	C 	0.1925	0.6432	0.5246	-0.01
Mof_C 	C 	0.063	0.6923	0.5206	0.089
Mof_C 	C 	0.9663	0.7075	0.5667	-0.082
Mof_C 	C 	0.9418	0.5826	0.2754	0.019
Mof_C 	C 	0.0434	0.5339	0.2482	-0.007
Mof_C 	C 	0.0187	0.6492	0.1998	0.094
Mof_C 	C 	0.199	0.5501	0.1557	0.089
Mof_C 	C 	0.2826	0.6077	0.125	-0.055
Mof_C 	C 	0.3709	0.5837	0.078	-0.075
Mof_C 	C 	0.381	0.502	0.0633	0.113
Mof_C 	C 	0.301	0.4444	0.0951	-0.081
Mof_C 	C 	0.2098	0.468	0.1414	-0.056
Mof_C 	C 	0.6027	0.6924	0.3286	0.283
Mof_C 	C 	0.5048	0.6717	0.3801	-0.017
Mof_C 	C 	0.3825	0.6169	0.3753	-0.06
Mof_C 	C 	0.2886	0.6027	0.4231	0.03
Mof_C 	C 	0.3075	0.6432	0.4754	-0.01
Mof_C 	C 	0.437	0.6923	0.4794	0.09
Mof_C 	C 	0.5337	0.7075	0.4333	-0.083
Mof_C 	C 	0.9418	0.9174	0.2246	0.021
Mof_C 	C 	0.0434	0.9661	0.2518	-0.01
Mof_C 	C 	0.0187	0.8508	0.3002	0.094
Mof_C 	C 	0.199	0.9499	0.3443	0.088
Mof_C 	C 	0.2826	0.8923	0.375	-0.054
Mof_C 	C 	0.3709	0.9163	0.422	-0.075
Mof_C 	C 	0.381	0.998	0.4367	0.113
Mof_C 	C 	0.301	0.0556	0.4049	-0.081
Mof_C 	C 	0.2098	0.032	0.3586	-0.055
Mof_C 	C 	0.6027	0.8076	0.1714	0.283
Mof_C 	C 	0.5048	0.8283	0.1199	-0.017
Mof_C 	C 	0.3825	0.8831	0.1247	-0.06
Mof_C 	C 	0.2886	0.8973	0.0769	0.03
Mof_C 	C 	0.3075	0.8568	0.0246	-0.01
Mof_C 	C 	0.437	0.8077	0.0206	0.09
Mof_C 	C 	0.5337	0.7925	0.0667	-0.083
Mof_C 	C 	0.5582	0.9174	0.7754	0.019
Mof_C 	C 	0.4566	0.9661	0.7482	-0.007
Mof_C 	C 	0.4813	0.8508	0.6998	0.094
Mof_C 	C 	0.301	0.9499	0.6557	0.089
Mof_C 	C 	0.2174	0.8923	0.625	-0.056
Mof_C 	C 	0.1291	0.9163	0.578	-0.074
Mof_C 	C 	0.119	0.998	0.5633	0.111
Mof_C 	C 	0.199	0.0556	0.5951	-0.079
Mof_C 	C 	0.2902	0.032	0.6414	-0.056
Mof_C 	C 	0.8973	0.8076	0.8286	0.283
Mof_C 	C 	0.9952	0.8283	0.8801	-0.016
Mof_C 	C 	0.1175	0.8831	0.8753	-0.061
Mof_C 	C 	0.2114	0.8973	0.9231	0.03
Mof_C 	C 	0.1925	0.8568	0.9754	-0.01
Mof_C 	C 	0.063	0.8077	0.9794	0.089
Mof_C 	C 	0.9663	0.7925	0.9333	-0.082
Mof_C 	C 	0.4418	0.4174	0.2754	0.019
Mof_C 	C 	0.5434	0.4661	0.2482	-0.007
Mof_C 	C 	0.5187	0.3508	0.1998	0.094
Mof_C 	C 	0.699	0.4499	0.1557	0.089
Mof_C 	C 	0.7826	0.3923	0.125	-0.055
Mof_C 	C 	0.8709	0.4163	0.078	-0.075
Mof_C 	C 	0.881	0.498	0.0633	0.113
Mof_C 	C 	0.801	0.5556	0.0951	-0.081
Mof_C 	C 	0.7098	0.532	0.1414	-0.056
Mof_C 	C 	0.1027	0.3076	0.3286	0.283
Mof_C 	C 	0.0048	0.3283	0.3801	-0.016
Mof_C 	C 	0.8825	0.3831	0.3753	-0.06
Mof_C 	C 	0.7886	0.3973	0.4231	0.03
Mof_C 	C 	0.8075	0.3568	0.4754	-0.01
Mof_C 	C 	0.937	0.3077	0.4794	0.089
Mof_C 	C 	0.0337	0.2925	0.4333	-0.082
Mof_C 	C 	0.0582	0.4174	0.7246	0.019
Mof_C 	C 	0.9566	0.4661	0.7518	-0.007
Mof_C 	C 	0.9813	0.3508	0.8002	0.094
Mof_C 	C 	0.801	0.4499	0.8443	0.089
Mof_C 	C 	0.7174	0.3923	0.875	-0.055
Mof_C 	C 	0.6291	0.4163	0.922	-0.075
Mof_C 	C 	0.619	0.498	0.9367	0.113
Mof_C 	C 	0.699	0.5556	0.9049	-0.081
Mof_C 	C 	0.7902	0.532	0.8586	-0.056
Mof_C 	C 	0.3973	0.3076	0.6714	0.283
Mof_C 	C 	0.4952	0.3283	0.6199	-0.017
Mof_C 	C 	0.6175	0.3831	0.6247	-0.06
Mof_C 	C 	0.7114	0.3973	0.5769	0.03
Mof_C 	C 	0.6925	0.3568	0.5246	-0.01
Mof_C 	C 	0.563	0.3077	0.5206	0.09
Mof_C 	C 	0.4663	0.2925	0.5667	-0.083
Mof_C 	C 	0.0582	0.0826	0.7754	0.021
Mof_C 	C 	0.9566	0.0339	0.7482	-0.01
Mof_C 	C 	0.9813	0.1492	0.6998	0.094
Mof_C 	C 	0.801	0.0501	0.6557	0.088
Mof_C 	C 	0.7174	0.1077	0.625	-0.054
Mof_C 	C 	0.6291	0.0837	0.578	-0.075
Mof_C 	C 	0.619	0.002	0.5633	0.113
Mof_C 	C 	0.699	0.9444	0.5951	-0.081
Mof_C 	C 	0.7902	0.968	0.6414	-0.055
Mof_C 	C 	0.3973	0.1924	0.8286	0.283
Mof_C 	C 	0.4952	0.1717	0.8801	-0.017
Mof_C 	C 	0.6175	0.1169	0.8753	-0.06
Mof_C 	C 	0.7114	0.1027	0.9231	0.03
Mof_C 	C 	0.6925	0.1432	0.9754	-0.01
Mof_C 	C 	0.563	0.1923	0.9794	0.09
Mof_C 	C 	0.4663	0.2075	0.9333	-0.083
Mof_C 	C 	0.4418	0.0826	0.2246	0.019
Mof_C 	C 	0.5434	0.0339	0.2518	-0.007
Mof_C 	C 	0.5187	0.1492	0.3002	0.094
Mof_C 	C 	0.699	0.0501	0.3443	0.089
Mof_C 	C 	0.7826	0.1077	0.375	-0.056
Mof_C 	C 	0.8709	0.0837	0.422	-0.074
Mof_C 	C 	0.881	0.002	0.4367	0.111
Mof_C 	C 	0.801	0.9444	0.4049	-0.079
Mof_C 	C 	0.7098	0.968	0.3586	-0.056
Mof_C 	C 	0.1027	0.1924	0.1714	0.283
Mof_C 	C 	0.0048	0.1717	0.1199	-0.016
Mof_C 	C 	0.8825	0.1169	0.1247	-0.061
Mof_C 	C 	0.7886	0.1027	0.0769	0.03
Mof_C 	C 	0.8075	0.1432	0.0246	-0.01
Mof_C 	C 	0.937	0.1923	0.0206	0.089
Mof_C 	C 	0.0337	0.2075	0.0667	-0.082
Mof_N 	N 	0.5754	0.655	0.756	-0.239
Mof_N 	N 	0.4036	0.5771	0.8002	-0.129
Mof_N 	N 	0.0331	0.4725	0.9853	-0.079
Mof_N 	N 	0.0171	0.7474	0.4771	-0.014
Mof_N 	N 	0.9246	0.655	0.244	-0.239
Mof_N 	N 	0.0964	0.5771	0.1998	-0.129
Mof_N 	N 	0.4669	0.4725	0.0147	-0.079
Mof_N 	N 	0.4829	0.7474	0.5229	-0.013
Mof_N 	N 	0.9246	0.845	0.256	-0.239
Mof_N 	N 	0.0964	0.9229	0.3002	-0.128
Mof_N 	N 	0.4669	0.0275	0.4853	-0.079
Mof_N 	N 	0.4829	0.7526	0.9771	-0.013
Mof_N 	N 	0.5754	0.845	0.744	-0.239
Mof_N 	N 	0.4036	0.9229	0.6998	-0.129
Mof_N 	N 	0.0331	0.0275	0.5147	-0.079
Mof_N 	N 	0.0171	0.7526	0.0229	-0.013
Mof_N 	N 	0.4246	0.345	0.244	-0.239
Mof_N 	N 	0.5964	0.4229	0.1998	-0.129
Mof_N 	N 	0.9669	0.5275	0.0147	-0.079
Mof_N 	N 	0.9829	0.2526	0.5229	-0.014
Mof_N 	N 	0.0754	0.345	0.756	-0.239
Mof_N 	N 	0.9036	0.4229	0.8002	-0.129
Mof_N 	N 	0.5331	0.5275	0.9853	-0.079
Mof_N 	N 	0.5171	0.2526	0.4771	-0.013
Mof_N 	N 	0.0754	0.155	0.744	-0.239
Mof_N 	N 	0.9036	0.0771	0.6998	-0.128
Mof_N 	N 	0.5331	0.9725	0.5147	-0.079
Mof_N 	N 	0.5171	0.2474	0.0229	-0.013
Mof_N 	N 	0.4246	0.155	0.256	-0.239
Mof_N 	N 	0.5964	0.0771	0.3002	-0.129
Mof_N 	N 	0.9669	0.9725	0.4853	-0.079
Mof_N 	N 	0.9829	0.2474	0.9771	-0.013
Mof_O 	O 	0.7917	0.7457	0.6638	-0.385
Mof_O 	O 	0.922	0.6613	0.71939	-0.35
Mof_O 	O 	0.8847	0.7579	0.4616	-0.115
Mof_O 	O 	0.1124	0.7661	0.4409	-0.117
Mof_O 	O 	0.7083	0.7457	0.3362	-0.385
Mof_O 	O 	0.578	0.6613	0.28061	-0.35
Mof_O 	O 	0.6153	0.7579	0.5384	-0.115
Mof_O 	O 	0.3876	0.7661	0.5591	-0.117
Mof_O 	O 	0.7083	0.7543	0.1638	-0.385
Mof_O 	O 	0.578	0.8387	0.21939	-0.35
Mof_O 	O 	0.6153	0.7421	0.9616	-0.115
Mof_O 	O 	0.3876	0.7339	0.9409	-0.117
Mof_O 	O 	0.7917	0.7543	0.8362	-0.385
Mof_O 	O 	0.922	0.8387	0.78061	-0.349
Mof_O 	O 	0.8847	0.7421	0.0384	-0.115
Mof_O 	O 	0.1124	0.7339	0.0591	-0.117
Mof_O 	O 	0.2083	0.2543	0.3362	-0.385
Mof_O 	O 	0.078	0.3387	0.28061	-0.35
Mof_O 	O 	0.1153	0.2421	0.5384	-0.115
Mof_O 	O 	0.8876	0.2339	0.5591	-0.117
Mof_O 	O 	0.2917	0.2543	0.6638	-0.385
Mof_O 	O 	0.422	0.3387	0.71939	-0.35
Mof_O 	O 	0.3847	0.2421	0.4616	-0.115
Mof_O 	O 	0.6124	0.2339	0.4409	-0.117
Mof_O 	O 	0.2917	0.2457	0.8362	-0.385
Mof_O 	O 	0.422	0.1613	0.78061	-0.35
Mof_O 	O 	0.3847	0.2579	0.0384	-0.115
Mof_O 	O 	0.6124	0.2661	0.0591	-0.117
Mof_O 	O 	0.2083	0.2457	0.1638	-0.385
Mof_O 	O 	0.078	0.1613	0.21939	-0.349
Mof_O 	O 	0.1153	0.2579	0.9616	-0.115
Mof_O 	O 	0.8876	0.2661	0.9409	-0.117
_end
