# CIF file generated by openbabel 3.1.0, see https://openbabel.org
data_I
_chemical_name_common 'image0'
_cell_length_a 13.7676
_cell_length_b 13.7676
_cell_length_c 28.0619
_cell_angle_alpha 90
_cell_angle_beta 90
_cell_angle_gamma 120
_space_group_name_H-M_alt 'P 1'
_space_group_name_Hall 'P 1'
loop_
    _symmetry_equiv_pos_as_xyz
    x,y,z
loop_
    _atom_site_label
    _atom_site_type_symbol
    _atom_site_fract_x
    _atom_site_fract_y
    _atom_site_fract_z
    _atom_site_occupancy
    In1      In       0.85316    0.55970    0.97537    1.000
    P1       P        0.97467    0.80914    0.91683    1.000
    P2       P        0.62942    0.50737    0.04011    1.000
    O1       O        0.03240    0.88880    0.95798    1.000
    O2       O        0.71450    0.57100    0.00162    1.000
    O3       O        0.87880    0.69630    0.93218    1.000
    O4       O        0.56270    0.56480    0.05146    1.000
    O5       O        0.93080    0.85400    0.87831    1.000
    O6       O        0.75990    0.44790    0.92050    1.000
    O7       O        0.55600    0.38410    0.02968    1.000
    O8       O        0.09030    0.94140    0.79524    1.000
    H1       H        0.05060    0.80130    0.89000    1.000
    O9       O        0.69580    0.50840    0.08210    1.000
    In2      In       0.44030    0.29346    0.97537    1.000
    P3       P        0.19086    0.16553    0.91683    1.000
    P4       P        0.49263    0.12205    0.04011    1.000
    O10      O        0.11120    0.14360    0.95798    1.000
    O11      O        0.42900    0.14350    0.00162    1.000
    O12      O        0.30370    0.18250    0.93218    1.000
    O13      O        0.43520    0.99790    0.05146    1.000
    O14      O        0.14600    0.07680    0.87831    1.000
    O15      O        0.55210    0.31200    0.92050    1.000
    O16      O        0.61590    0.17190    0.02968    1.000
    O17      O        0.05860    0.14890    0.79524    1.000
    H2       H        0.19870    0.24930    0.89000    1.000
    O18      O        0.49160    0.18740    0.08210    1.000
    In3      In       0.70654    0.14684    0.97537    1.000
    P5       P        0.83447    0.02533    0.91683    1.000
    P6       P        0.87795    0.37058    0.04011    1.000
    O19      O        0.85640    0.96760    0.95798    1.000
    O20      O        0.85650    0.28550    0.00162    1.000
    O21      O        0.81750    0.12120    0.93218    1.000
    O22      O        0.00210    0.43730    0.05146    1.000
    O23      O        0.92320    0.06920    0.87831    1.000
    O24      O        0.68800    0.24010    0.92050    1.000
    O25      O        0.82810    0.44400    0.02968    1.000
    O26      O        0.85110    0.90970    0.79524    1.000
    H3       H        0.75070    0.94940    0.89000    1.000
    O27      O        0.81260    0.30420    0.08210    1.000
    In4      In       0.14684    0.44030    0.47537    1.000
    P7       P        0.02533    0.19086    0.41683    1.000
    P8       P        0.37058    0.49263    0.54011    1.000
    O28      O        0.96760    0.11120    0.45798    1.000
    O29      O        0.28550    0.42900    0.50162    1.000
    O30      O        0.12120    0.30370    0.43218    1.000
    O31      O        0.43730    0.43520    0.55146    1.000
    O32      O        0.06920    0.14600    0.37831    1.000
    O33      O        0.24010    0.55210    0.42050    1.000
    O34      O        0.44400    0.61590    0.52968    1.000
    O35      O        0.90970    0.05860    0.29524    1.000
    H4       H        0.94940    0.19870    0.39000    1.000
    O36      O        0.30420    0.49160    0.58210    1.000
    In5      In       0.55970    0.70654    0.47537    1.000
    P9       P        0.80914    0.83447    0.41683    1.000
    P10      P        0.50737    0.87795    0.54011    1.000
    O37      O        0.88880    0.85640    0.45798    1.000
    O38      O        0.57100    0.85650    0.50162    1.000
    O39      O        0.69630    0.81750    0.43218    1.000
    O40      O        0.56480    0.00210    0.55146    1.000
    O41      O        0.85400    0.92320    0.37831    1.000
    O42      O        0.44790    0.68800    0.42050    1.000
    O43      O        0.38410    0.82810    0.52968    1.000
    O44      O        0.94140    0.85110    0.29524    1.000
    H5       H        0.80130    0.75070    0.39000    1.000
    O45      O        0.50840    0.81260    0.58210    1.000
    In6      In       0.29346    0.85316    0.47537    1.000
    P11      P        0.16553    0.97467    0.41683    1.000
    P12      P        0.12205    0.62942    0.54011    1.000
    O46      O        0.14360    0.03240    0.45798    1.000
    O47      O        0.14350    0.71450    0.50162    1.000
    O48      O        0.18250    0.87880    0.43218    1.000
    O49      O        0.99790    0.56270    0.55146    1.000
    O50      O        0.07680    0.93080    0.37831    1.000
    O51      O        0.31200    0.75990    0.42050    1.000
    O52      O        0.17190    0.55600    0.52968    1.000
    O53      O        0.14890    0.09030    0.29524    1.000
    H6       H        0.24930    0.05060    0.39000    1.000
    O54      O        0.18740    0.69580    0.58210    1.000
    In7      In       0.14684    0.44030    0.02463    1.000
    P13      P        0.02533    0.19086    0.08317    1.000
    P14      P        0.37058    0.49263    0.95989    1.000
    O55      O        0.96760    0.11120    0.04202    1.000
    O56      O        0.28550    0.42900    0.99838    1.000
    O57      O        0.12120    0.30370    0.06782    1.000
    O58      O        0.43730    0.43520    0.94854    1.000
    O59      O        0.06920    0.14600    0.12169    1.000
    O60      O        0.24010    0.55210    0.07950    1.000
    O61      O        0.44400    0.61590    0.97032    1.000
    O62      O        0.90970    0.05860    0.20476    1.000
    H7       H        0.94940    0.19870    0.11000    1.000
    O63      O        0.30420    0.49160    0.91790    1.000
    In8      In       0.55970    0.70654    0.02463    1.000
    P15      P        0.80914    0.83447    0.08317    1.000
    P16      P        0.50737    0.87795    0.95989    1.000
    O64      O        0.88880    0.85640    0.04202    1.000
    O65      O        0.57100    0.85650    0.99838    1.000
    O66      O        0.69630    0.81750    0.06782    1.000
    O67      O        0.56480    0.00210    0.94854    1.000
    O68      O        0.85400    0.92320    0.12169    1.000
    O69      O        0.44790    0.68800    0.07950    1.000
    O70      O        0.38410    0.82810    0.97032    1.000
    O71      O        0.94140    0.85110    0.20476    1.000
    H8       H        0.80130    0.75070    0.11000    1.000
    O72      O        0.50840    0.81260    0.91790    1.000
    In9      In       0.29346    0.85316    0.02463    1.000
    P17      P        0.16553    0.97467    0.08317    1.000
    P18      P        0.12205    0.62942    0.95989    1.000
    O73      O        0.14360    0.03240    0.04202    1.000
    O74      O        0.14350    0.71450    0.99838    1.000
    O75      O        0.18250    0.87880    0.06782    1.000
    O76      O        0.99790    0.56270    0.94854    1.000
    O77      O        0.07680    0.93080    0.12169    1.000
    O78      O        0.31200    0.75990    0.07950    1.000
    O79      O        0.17190    0.55600    0.97032    1.000
    O80      O        0.14890    0.09030    0.20476    1.000
    H9       H        0.24930    0.05060    0.11000    1.000
    O81      O        0.18740    0.69580    0.91790    1.000
    In10     In       0.85316    0.55970    0.52463    1.000
    P19      P        0.97467    0.80914    0.58317    1.000
    P20      P        0.62942    0.50737    0.45989    1.000
    O82      O        0.03240    0.88880    0.54202    1.000
    O83      O        0.71450    0.57100    0.49838    1.000
    O84      O        0.87880    0.69630    0.56782    1.000
    O85      O        0.56270    0.56480    0.44854    1.000
    O86      O        0.93080    0.85400    0.62169    1.000
    O87      O        0.75990    0.44790    0.57950    1.000
    O88      O        0.55600    0.38410    0.47032    1.000
    O89      O        0.09030    0.94140    0.70476    1.000
    H10      H        0.05060    0.80130    0.61000    1.000
    O90      O        0.69580    0.50840    0.41790    1.000
    In11     In       0.44030    0.29346    0.52463    1.000
    P21      P        0.19086    0.16553    0.58317    1.000
    P22      P        0.49263    0.12205    0.45989    1.000
    O91      O        0.11120    0.14360    0.54202    1.000
    O92      O        0.42900    0.14350    0.49838    1.000
    O93      O        0.30370    0.18250    0.56782    1.000
    O94      O        0.43520    0.99790    0.44854    1.000
    O95      O        0.14600    0.07680    0.62169    1.000
    O96      O        0.55210    0.31200    0.57950    1.000
    O97      O        0.61590    0.17190    0.47032    1.000
    O98      O        0.05860    0.14890    0.70476    1.000
    H11      H        0.19870    0.24930    0.61000    1.000
    O99      O        0.49160    0.18740    0.41790    1.000
    In12     In       0.70654    0.14684    0.52463    1.000
    P23      P        0.83447    0.02533    0.58317    1.000
    P24      P        0.87795    0.37058    0.45989    1.000
    O100     O        0.85640    0.96760    0.54202    1.000
    O101     O        0.85650    0.28550    0.49838    1.000
    O102     O        0.81750    0.12120    0.56782    1.000
    O103     O        0.00210    0.43730    0.44854    1.000
    O104     O        0.92320    0.06920    0.62169    1.000
    O105     O        0.68800    0.24010    0.57950    1.000
    O106     O        0.82810    0.44400    0.47032    1.000
    O107     O        0.85110    0.90970    0.70476    1.000
    H12      H        0.75070    0.94940    0.61000    1.000
    O108     O        0.81260    0.30420    0.41790    1.000
    In13     In       0.00000    0.00000    0.00000    1.000
    In14     In       0.00000    0.00000    0.50000    1.000
    In15     In       0.00000    0.00000    0.83559    1.000
    In16     In       0.00000    0.00000    0.33559    1.000
    In17     In       0.00000    0.00000    0.16441    1.000
    In18     In       0.00000    0.00000    0.66441    1.000
    P25      P        0.66667    0.33333    0.90764    1.000
    H13      H        0.66667    0.33333    0.86060    1.000
    P26      P        0.33333    0.66667    0.40764    1.000
    H14      H        0.33333    0.66667    0.36060    1.000
    P27      P        0.33333    0.66667    0.09236    1.000
    H15      H        0.33333    0.66667    0.13940    1.000
    P28      P        0.66667    0.33333    0.59236    1.000
    H16      H        0.66667    0.33333    0.63940    1.000
    P29      P        0.07277    0.87610    0.75000    1.000
    O109     O        0.15297    0.82800    0.75000    1.000
    O110     O        0.96270    0.77340    0.75000    1.000
    H17      H        0.15170    0.76810    0.75000    1.000
    P30      P        0.12390    0.19667    0.75000    1.000
    O111     O        0.17200    0.32497    0.75000    1.000
    O112     O        0.22660    0.18930    0.75000    1.000
    H18      H        0.23190    0.38360    0.75000    1.000
    P31      P        0.80333    0.92723    0.75000    1.000
    O113     O        0.67503    0.84703    0.75000    1.000
    O114     O        0.81070    0.03730    0.75000    1.000
    H19      H        0.61640    0.84830    0.75000    1.000
    P32      P        0.92723    0.12390    0.25000    1.000
    O115     O        0.84703    0.17200    0.25000    1.000
    O116     O        0.03730    0.22660    0.25000    1.000
    H20      H        0.84830    0.23190    0.25000    1.000
    P33      P        0.87610    0.80333    0.25000    1.000
    O117     O        0.82800    0.67503    0.25000    1.000
    O118     O        0.77340    0.81070    0.25000    1.000
    H21      H        0.76810    0.61640    0.25000    1.000
    P34      P        0.19667    0.07277    0.25000    1.000
    O119     O        0.32497    0.15297    0.25000    1.000
    O120     O        0.18930    0.96270    0.25000    1.000
    H22      H        0.38360    0.15170    0.25000    1.000
