data_functionalizedCrystal
_audit_creation_method	'EQeq! by Chris Wilmer'
_symmetry_space_group_name_H-M	'P1'
_symmetry_Int_Tables_number	1
_symmetry_cell_setting	triclinic
loop_
_symmetry_equiv_pos_as_xyz
  x,y,z
_cell_length_a	9.5297
_cell_length_b	12.6996
_cell_length_c	18.8203
_cell_angle_alpha	106.347
_cell_angle_beta	98.63
_cell_angle_gamma	100.059
loop_
_atom_site_label
_atom_site_type_symbol
_atom_site_fract_x
_atom_site_fract_y
_atom_site_fract_z
_atom_site_charge
Mof_Nd	Nd	0.76665	0.98368	0.99668	2.367
Mof_O 	O 	0.4542	0.0301	0.0868	-0.665
Mof_N 	N 	0.0005	0.1483	0.6799	-0.11
Mof_O 	O 	0.6866	0.0244	0.1174	-0.592
Mof_O 	O 	0.8608	0.0652	0.904	-0.556
Mof_O 	O 	0.0087	0.8909	0.9261	-0.618
Mof_N 	N 	0.9587	0.6073	0.6746	-0.108
Mof_O 	O 	0.7698	0.8229	0.8878	-0.544
Mof_O 	O 	0.1053	0.12	0.9365	-0.573
Mof_N 	N 	0.5663	0.1672	0.3666	-0.111
Mof_C 	C 	0.9199	0.2317	0.578	-0.151
Mof_C 	C 	0.5675	0.0414	0.1329	0.519
Mof_C 	C 	0.565	0.0825	0.2163	-0.151
Mof_C 	C 	0.9054	0.4182	0.5741	-0.153
Mof_C 	C 	0.4376	0.1021	0.2402	0.006
Mof_H 	H 	0.3488	0.0861	0.2044	0.029
Mof_C 	C 	0.6875	0.1457	0.3461	-0.004
Mof_H 	H 	0.773	0.1597	0.3837	0.034
Mof_C 	C 	0.7723	0.3753	0.5234	0.19
Mof_C 	C 	0.9795	0.3467	0.6025	0.198
Mof_C 	C 	0.7096	0.258	0.5023	-0.151
Mof_C 	C 	0.782	0.1861	0.5285	0.197
Mof_C 	C 	0.8975	0.8235	0.88	0.461
Mof_C 	C 	0.9886	0.1185	0.8167	-0.124
Mof_C 	C 	0.691	0.1028	0.2704	-0.001
Mof_H 	H 	0.7784	0.0874	0.2558	0.037
Mof_C 	C 	0.0592	0.7376	0.7971	0.027
Mof_H 	H 	0.1423	0.7811	0.8353	-0.009
Mof_C 	C 	0.9833	0.1002	0.8929	0.486
Mof_C 	C 	0.8019	0.6756	0.7533	-0.001
Mof_H 	H 	0.7058	0.676	0.7612	0.03
Mof_C 	C 	0.123	0.3962	0.6595	-0.543
Mof_H 	H 	0.1576	0.336	0.6749	0.182
Mof_H 	H 	0.109	0.4525	0.704	0.183
Mof_H 	H 	0.1952	0.432	0.6364	0.17
Mof_C 	C 	0.0067	0.1537	0.6004	-0.023
Mof_H 	H 	0.1096	0.1792	0.598	0.023
Mof_H 	H 	0.969	0.077	0.5636	0.031
Mof_C 	C 	0.8742	0.1436	0.7031	0.004
Mof_H 	H 	0.7903	0.1503	0.6719	0.025
Mof_C 	C 	0.9207	0.7425	0.8091	-0.149
Mof_C 	C 	0.4428	0.1452	0.3168	-0.009
Mof_H 	H 	0.3569	0.1592	0.3339	0.028
Mof_C 	C 	0.118	0.1252	0.7915	-0.003
Mof_H 	H 	0.2039	0.1208	0.8224	0.026
Mof_C 	C 	0.8664	0.1293	0.7716	-0.01
Mof_H 	H 	0.7771	0.1267	0.7884	0.03
Mof_C 	C 	0.0759	0.6692	0.7293	-0.023
Mof_H 	H 	0.171	0.6656	0.7209	0.028
Mof_C 	C 	0.823	0.6085	0.6862	-0.007
Mof_H 	H 	0.7413	0.5627	0.6479	0.026
Mof_C 	C 	0.979	0.5431	0.5988	-0.013
Mof_H 	H 	0.0847	0.551	0.6001	0.029
Mof_H 	H 	0.9391	0.5763	0.5607	0.027
Mof_C 	C 	0.5591	0.2109	0.4504	-0.015
Mof_H 	H 	0.5034	0.2706	0.4575	0.025
Mof_H 	H 	0.5062	0.1485	0.4649	0.019
Mof_C 	C 	0.6891	0.4484	0.4905	-0.526
Mof_H 	H 	0.6076	0.4603	0.5156	0.165
Mof_H 	H 	0.6516	0.4108	0.436	0.172
Mof_H 	H 	0.7546	0.5214	0.4986	0.169
Mof_C 	C 	0.1217	0.1382	0.7214	-0.009
Mof_H 	H 	0.209	0.1401	0.7028	0.021
Mof_C 	C 	0.7176	0.0609	0.5028	-0.549
Mof_H 	H 	0.6189	0.0446	0.4724	0.18
Mof_H 	H 	0.7137	0.0354	0.5472	0.179
Mof_H 	H 	0.7785	0.0212	0.4722	0.18
Mof_Nd	Nd	0.23335	0.01632	0.00332	2.366
Mof_O 	O 	0.5458	0.9699	0.9132	-0.666
Mof_N 	N 	0.9995	0.8517	0.3201	-0.111
Mof_O 	O 	0.3134	0.9756	0.8826	-0.593
Mof_O 	O 	0.1392	0.9348	0.096	-0.556
Mof_O 	O 	0.9913	0.1091	0.0739	-0.618
Mof_N 	N 	0.0413	0.3927	0.3254	-0.108
Mof_O 	O 	0.2302	0.1771	0.1122	-0.544
Mof_O 	O 	0.8947	0.88	0.0635	-0.573
Mof_N 	N 	0.4337	0.8328	0.6334	-0.111
Mof_C 	C 	0.0801	0.7683	0.422	-0.151
Mof_C 	C 	0.4325	0.9586	0.8671	0.519
Mof_C 	C 	0.435	0.9175	0.7837	-0.151
Mof_C 	C 	0.0946	0.5818	0.4259	-0.153
Mof_C 	C 	0.5624	0.8979	0.7598	0.006
Mof_H 	H 	0.6512	0.9139	0.7956	0.029
Mof_C 	C 	0.3125	0.8543	0.6539	-0.004
Mof_H 	H 	0.227	0.8403	0.6163	0.034
Mof_C 	C 	0.2277	0.6247	0.4766	0.19
Mof_C 	C 	0.0205	0.6533	0.3975	0.198
Mof_C 	C 	0.2904	0.742	0.4977	-0.151
Mof_C 	C 	0.218	0.8139	0.4715	0.197
Mof_C 	C 	0.1025	0.1765	0.12	0.461
Mof_C 	C 	0.0114	0.8815	0.1833	-0.124
Mof_C 	C 	0.309	0.8972	0.7296	-0.001
Mof_H 	H 	0.2216	0.9126	0.7442	0.037
Mof_C 	C 	0.9408	0.2624	0.2029	0.027
Mof_H 	H 	0.8577	0.2189	0.1647	-0.009
Mof_C 	C 	0.0167	0.8998	0.1071	0.486
Mof_C 	C 	0.1981	0.3244	0.2467	-0.001
Mof_H 	H 	0.2942	0.324	0.2388	0.03
Mof_C 	C 	0.877	0.6038	0.3405	-0.543
Mof_H 	H 	0.8424	0.664	0.3251	0.182
Mof_H 	H 	0.891	0.5475	0.296	0.183
Mof_H 	H 	0.8048	0.568	0.3636	0.17
Mof_C 	C 	0.9933	0.8463	0.3996	-0.023
Mof_H 	H 	0.8904	0.8208	0.402	0.023
Mof_H 	H 	0.031	0.923	0.4364	0.031
Mof_C 	C 	0.1258	0.8564	0.2969	0.004
Mof_H 	H 	0.2097	0.8497	0.3281	0.025
Mof_C 	C 	0.0793	0.2575	0.1909	-0.149
Mof_C 	C 	0.5572	0.8548	0.6832	-0.009
Mof_H 	H 	0.6431	0.8408	0.6661	0.028
Mof_C 	C 	0.882	0.8748	0.2085	-0.003
Mof_H 	H 	0.7961	0.8792	0.1776	0.026
Mof_C 	C 	0.1336	0.8707	0.2284	-0.01
Mof_H 	H 	0.2229	0.8733	0.2116	0.03
Mof_C 	C 	0.9241	0.3308	0.2707	-0.023
Mof_H 	H 	0.829	0.3344	0.2791	0.028
Mof_C 	C 	0.177	0.3915	0.3138	-0.007
Mof_H 	H 	0.2587	0.4373	0.3521	0.026
Mof_C 	C 	0.021	0.4569	0.4012	-0.013
Mof_H 	H 	0.9153	0.449	0.3999	0.029
Mof_H 	H 	0.0609	0.4237	0.4393	0.027
Mof_C 	C 	0.4409	0.7891	0.5496	-0.015
Mof_H 	H 	0.4966	0.7294	0.5425	0.025
Mof_H 	H 	0.4938	0.8515	0.5351	0.019
Mof_C 	C 	0.3109	0.5516	0.5095	-0.526
Mof_H 	H 	0.3924	0.5397	0.4844	0.165
Mof_H 	H 	0.3484	0.5892	0.564	0.172
Mof_H 	H 	0.2454	0.4786	0.5014	0.169
Mof_C 	C 	0.8783	0.8618	0.2786	-0.009
Mof_H 	H 	0.791	0.8599	0.2972	0.021
Mof_C 	C 	0.2824	0.9391	0.4972	-0.549
Mof_H 	H 	0.3811	0.9554	0.5276	0.18
Mof_H 	H 	0.2863	0.9646	0.4528	0.179
Mof_H 	H 	0.2215	0.9788	0.5278	0.18
_end
