data_functionalizedCrystal
_audit_creation_method	'EQeq! by Chris Wilmer'
_symmetry_space_group_name_H-M	'P1'
_symmetry_Int_Tables_number	1
_symmetry_cell_setting	triclinic
loop_
_symmetry_equiv_pos_as_xyz
  x,y,z
_cell_length_a	9.2571
_cell_length_b	11.823
_cell_length_c	16.861
_cell_angle_alpha	90
_cell_angle_beta	90
_cell_angle_gamma	90
loop_
_atom_site_label
_atom_site_type_symbol
_atom_site_fract_x
_atom_site_fract_y
_atom_site_fract_z
_atom_site_charge
Mof_Co	Co	0.83368	0.54162	0.11346	1.147
Mof_C 	C 	0.8115	0.3828	0.1119	-0.266
Mof_N 	N 	0.6498	0.5461	0.96267	-0.383
Mof_N 	N 	0.8834	0.7964	0.11489	-0.4
Mof_C 	C 	0.8608	0.7013	0.11429	-0.208
Mof_C 	C 	0.6614	0.5597	0.17292	-0.276
Mof_C 	C 	0.0107	0.5266	0.05774	-0.272
Mof_C 	C 	0.7229	0.5479	0.01789	-0.204
Mof_C 	C 	0.9309	0.5249	0.21232	-0.197
Mof_N 	N 	0.8054	0.286	0.111	-0.132
Mof_N 	N 	0.9793	0.5092	0.27326	-0.396
Mof_N 	N 	0.5591	0.5706	0.21013	-0.106
Mof_N 	N 	0.1199	0.5193	0.02574	-0.137
Mof_Li	Li	0.4766	0.549	0.8846	1.836
Mof_Co	Co	0.66632	0.45838	0.61346	1.148
Mof_C 	C 	0.6885	0.6172	0.6119	-0.267
Mof_N 	N 	0.8502	0.4539	0.46267	-0.381
Mof_N 	N 	0.6166	0.2036	0.61489	-0.4
Mof_C 	C 	0.6392	0.2987	0.61429	-0.207
Mof_C 	C 	0.8386	0.4403	0.67292	-0.276
Mof_C 	C 	0.4893	0.4734	0.55774	-0.273
Mof_C 	C 	0.7771	0.4521	0.51789	-0.204
Mof_C 	C 	0.5691	0.4751	0.71232	-0.198
Mof_N 	N 	0.6946	0.714	0.611	-0.133
Mof_N 	N 	0.5207	0.4908	0.77326	-0.398
Mof_N 	N 	0.9409	0.4294	0.71013	-0.105
Mof_N 	N 	0.3801	0.4807	0.52574	-0.138
Mof_Li	Li	0.0234	0.451	0.3846	1.832
Mof_Co	Co	0.16632	0.04162	0.38654	1.146
Mof_C 	C 	0.1885	0.8828	0.3881	-0.264
Mof_N 	N 	0.3502	0.0461	0.53733	-0.383
Mof_N 	N 	0.1166	0.2964	0.38511	-0.4
Mof_C 	C 	0.1392	0.2013	0.38571	-0.21
Mof_C 	C 	0.3386	0.0597	0.32708	-0.277
Mof_C 	C 	0.9893	0.0266	0.44226	-0.265
Mof_C 	C 	0.2771	0.0479	0.48211	-0.207
Mof_C 	C 	0.0691	0.0249	0.28768	-0.201
Mof_N 	N 	0.1946	0.786	0.389	-0.134
Mof_N 	N 	0.0207	0.0092	0.22674	-0.397
Mof_N 	N 	0.4409	0.0706	0.28987	-0.106
Mof_N 	N 	0.8801	0.0193	0.47426	-0.137
Mof_Li	Li	0.5234	0.049	0.6154	1.834
Mof_Co	Co	0.33368	0.95838	0.88654	1.149
Mof_C 	C 	0.3115	0.1172	0.8881	-0.274
Mof_N 	N 	0.1498	0.9539	0.03733	-0.379
Mof_N 	N 	0.3834	0.7036	0.88511	-0.401
Mof_C 	C 	0.3608	0.7987	0.88571	-0.208
Mof_C 	C 	0.1614	0.9403	0.82708	-0.275
Mof_C 	C 	0.5107	0.9734	0.94226	-0.271
Mof_C 	C 	0.2229	0.9521	0.98211	-0.204
Mof_C 	C 	0.4309	0.9751	0.78768	-0.196
Mof_N 	N 	0.3054	0.214	0.889	-0.134
Mof_N 	N 	0.4793	0.9908	0.72674	-0.397
Mof_N 	N 	0.0591	0.9294	0.78987	-0.106
Mof_N 	N 	0.6199	0.9807	0.97426	-0.136
Mof_Li	Li	0.9766	0.951	0.1154	1.827
_end
