data_functionalizedCrystal
_audit_creation_method	'EQeq! by Chris Wilmer'
_symmetry_space_group_name_H-M	'P1'
_symmetry_Int_Tables_number	1
_symmetry_cell_setting	triclinic
loop_
_symmetry_equiv_pos_as_xyz
  x,y,z
_cell_length_a	19.3577
_cell_length_b	19.3577
_cell_length_c	11.0242
_cell_angle_alpha	90
_cell_angle_beta	90
_cell_angle_gamma	90
loop_
_atom_site_label
_atom_site_type_symbol
_atom_site_fract_x
_atom_site_fract_y
_atom_site_fract_z
_atom_site_charge
Mof_C 	C 	0.3083	0.5793	0.2599	0.094
Mof_H 	H 	0.3497	0.5953	0.228	0.004
Mof_C 	C 	0.3115	0.5337	0.3559	-0.145
Mof_C 	C 	0.3811	0.5157	0.4111	0.405
Mof_O 	O 	0.3804	0.4834	0.5084	-0.405
Mof_O 	O 	0.4319	0.5354	0.3536	-0.418
Mof_C 	C 	0.1917	0.9207	0.2599	0.094
Mof_H 	H 	0.1503	0.9047	0.228	0.004
Mof_C 	C 	0.1885	0.9663	0.3559	-0.147
Mof_C 	C 	0.1189	0.9843	0.4111	0.405
Mof_O 	O 	0.1196	0.0166	0.5084	-0.407
Mof_O 	O 	0.0681	0.9646	0.3536	-0.419
Mof_C 	C 	0.9207	0.3083	0.2599	0.093
Mof_H 	H 	0.9047	0.3497	0.228	0.003
Mof_C 	C 	0.9663	0.3115	0.3559	-0.147
Mof_C 	C 	0.9843	0.3811	0.4111	0.404
Mof_O 	O 	0.0166	0.3804	0.5084	-0.407
Mof_O 	O 	0.9646	0.4319	0.3536	-0.419
Mof_C 	C 	0.5793	0.1917	0.2599	0.093
Mof_H 	H 	0.5953	0.1503	0.228	0.003
Mof_C 	C 	0.5337	0.1885	0.3559	-0.146
Mof_C 	C 	0.5157	0.1189	0.4111	0.404
Mof_O 	O 	0.4834	0.1196	0.5084	-0.406
Mof_O 	O 	0.5354	0.0681	0.3536	-0.419
Mof_C 	C 	0.6917	0.0793	0.7401	0.093
Mof_H 	H 	0.6503	0.0953	0.772	0.003
Mof_C 	C 	0.6885	0.0337	0.6441	-0.147
Mof_C 	C 	0.6189	0.0157	0.5889	0.404
Mof_O 	O 	0.6196	0.9834	0.4916	-0.407
Mof_O 	O 	0.5681	0.0354	0.6464	-0.419
Mof_C 	C 	0.8083	0.4207	0.7401	0.093
Mof_H 	H 	0.8497	0.4047	0.772	0.003
Mof_C 	C 	0.8115	0.4663	0.6441	-0.146
Mof_C 	C 	0.8811	0.4843	0.5889	0.404
Mof_O 	O 	0.8804	0.5166	0.4916	-0.406
Mof_O 	O 	0.9319	0.4646	0.6464	-0.419
Mof_C 	C 	0.0793	0.8083	0.7401	0.093
Mof_H 	H 	0.0953	0.8497	0.772	0.003
Mof_C 	C 	0.0337	0.8115	0.6441	-0.147
Mof_C 	C 	0.0157	0.8811	0.5889	0.405
Mof_O 	O 	0.9834	0.8804	0.4916	-0.407
Mof_O 	O 	0.0354	0.9319	0.6464	-0.419
Mof_C 	C 	0.4207	0.6917	0.7401	0.093
Mof_H 	H 	0.4047	0.6503	0.772	0.003
Mof_C 	C 	0.4663	0.6885	0.6441	-0.146
Mof_C 	C 	0.4843	0.6189	0.5889	0.404
Mof_O 	O 	0.5166	0.6196	0.4916	-0.406
Mof_O 	O 	0.4646	0.5681	0.6464	-0.419
Mof_C 	C 	0.6917	0.4207	0.7401	0.093
Mof_H 	H 	0.6503	0.4047	0.772	0.003
Mof_C 	C 	0.6885	0.4663	0.6441	-0.146
Mof_C 	C 	0.6189	0.4843	0.5889	0.404
Mof_O 	O 	0.6196	0.5166	0.4916	-0.406
Mof_O 	O 	0.5681	0.4646	0.6464	-0.419
Mof_C 	C 	0.8083	0.0793	0.7401	0.093
Mof_H 	H 	0.8497	0.0953	0.772	0.003
Mof_C 	C 	0.8115	0.0337	0.6441	-0.147
Mof_C 	C 	0.8811	0.0157	0.5889	0.405
Mof_O 	O 	0.8804	0.9834	0.4916	-0.407
Mof_O 	O 	0.9319	0.0354	0.6464	-0.419
Mof_C 	C 	0.0793	0.6917	0.7401	0.093
Mof_H 	H 	0.0953	0.6503	0.772	0.003
Mof_C 	C 	0.0337	0.6885	0.6441	-0.147
Mof_C 	C 	0.0157	0.6189	0.5889	0.404
Mof_O 	O 	0.9834	0.6196	0.4916	-0.407
Mof_O 	O 	0.0354	0.5681	0.6464	-0.419
Mof_C 	C 	0.4207	0.8083	0.7401	0.093
Mof_H 	H 	0.4047	0.8497	0.772	0.003
Mof_C 	C 	0.4663	0.8115	0.6441	-0.146
Mof_C 	C 	0.4843	0.8811	0.5889	0.404
Mof_O 	O 	0.5166	0.8804	0.4916	-0.406
Mof_O 	O 	0.4646	0.9319	0.6464	-0.419
Mof_C 	C 	0.3083	0.9207	0.2599	0.093
Mof_H 	H 	0.3497	0.9047	0.228	0.003
Mof_C 	C 	0.3115	0.9663	0.3559	-0.147
Mof_C 	C 	0.3811	0.9843	0.4111	0.404
Mof_O 	O 	0.3804	0.0166	0.5084	-0.407
Mof_O 	O 	0.4319	0.9646	0.3536	-0.419
Mof_C 	C 	0.1917	0.5793	0.2599	0.093
Mof_H 	H 	0.1503	0.5953	0.228	0.003
Mof_C 	C 	0.1885	0.5337	0.3559	-0.146
Mof_C 	C 	0.1189	0.5157	0.4111	0.404
Mof_O 	O 	0.1196	0.4834	0.5084	-0.406
Mof_O 	O 	0.0681	0.5354	0.3536	-0.419
Mof_C 	C 	0.9207	0.1917	0.2599	0.093
Mof_H 	H 	0.9047	0.1503	0.228	0.003
Mof_C 	C 	0.9663	0.1885	0.3559	-0.147
Mof_C 	C 	0.9843	0.1189	0.4111	0.405
Mof_O 	O 	0.0166	0.1196	0.5084	-0.407
Mof_O 	O 	0.9646	0.0681	0.3536	-0.419
Mof_C 	C 	0.5793	0.3083	0.2599	0.093
Mof_H 	H 	0.5953	0.3497	0.228	0.003
Mof_C 	C 	0.5337	0.3115	0.3559	-0.146
Mof_C 	C 	0.5157	0.3811	0.4111	0.404
Mof_O 	O 	0.4834	0.3804	0.5084	-0.406
Mof_O 	O 	0.5354	0.4319	0.3536	-0.419
Mof_Cu	Cu	0.25	0.68089	0.08787	0.725
Mof_I 	I 	0.25	0.63108	0.86473	-0.57
Mof_C 	C 	0.25	0.5119	0.406	0.092
Mof_H 	H 	0.25	0.4826	0.4729	0.033
Mof_N 	N 	0.25	0.6017	0.21	-0.244
Mof_Cu	Cu	0.25	0.81911	0.08787	0.725
Mof_I 	I 	0.25	0.86892	0.86473	-0.569
Mof_C 	C 	0.25	0.9881	0.406	0.093
Mof_H 	H 	0.25	0.0174	0.4729	0.032
Mof_N 	N 	0.25	0.8983	0.21	-0.244
Mof_Cu	Cu	0.81911	0.25	0.08787	0.725
Mof_I 	I 	0.86892	0.25	0.86473	-0.569
Mof_C 	C 	0.9881	0.25	0.406	0.093
Mof_H 	H 	0.0174	0.25	0.4729	0.032
Mof_N 	N 	0.8983	0.25	0.21	-0.244
Mof_Cu	Cu	0.68089	0.25	0.08787	0.725
Mof_I 	I 	0.63108	0.25	0.86473	-0.57
Mof_C 	C 	0.5119	0.25	0.406	0.092
Mof_H 	H 	0.4826	0.25	0.4729	0.033
Mof_N 	N 	0.6017	0.25	0.21	-0.244
Mof_Cu	Cu	0.75	0.18089	0.91213	0.725
Mof_I 	I 	0.75	0.13108	0.13527	-0.569
Mof_C 	C 	0.75	0.0119	0.594	0.093
Mof_H 	H 	0.75	0.9826	0.5271	0.032
Mof_N 	N 	0.75	0.1017	0.79	-0.244
Mof_Cu	Cu	0.75	0.31911	0.91213	0.725
Mof_I 	I 	0.75	0.36892	0.13527	-0.57
Mof_C 	C 	0.75	0.4881	0.594	0.092
Mof_H 	H 	0.75	0.5174	0.5271	0.033
Mof_N 	N 	0.75	0.3983	0.79	-0.244
Mof_Cu	Cu	0.18089	0.75	0.91213	0.725
Mof_I 	I 	0.13108	0.75	0.13527	-0.569
Mof_C 	C 	0.0119	0.75	0.594	0.093
Mof_H 	H 	0.9826	0.75	0.5271	0.032
Mof_N 	N 	0.1017	0.75	0.79	-0.244
Mof_Cu	Cu	0.31911	0.75	0.91213	0.725
Mof_I 	I 	0.36892	0.75	0.13527	-0.57
Mof_C 	C 	0.4881	0.75	0.594	0.092
Mof_H 	H 	0.5174	0.75	0.5271	0.033
Mof_N 	N 	0.3983	0.75	0.79	-0.244
Mof_Cu	Cu	0.46747	0.46747	0.6014	0.906
Mof_Cu	Cu	0.03253	0.03253	0.6014	0.906
Mof_Cu	Cu	0.03253	0.46747	0.6014	0.906
Mof_Cu	Cu	0.46747	0.03253	0.6014	0.906
Mof_Cu	Cu	0.53253	0.96747	0.3986	0.906
Mof_Cu	Cu	0.96747	0.53253	0.3986	0.906
Mof_Cu	Cu	0.96747	0.96747	0.3986	0.906
Mof_Cu	Cu	0.53253	0.53253	0.3986	0.906
_end
