# CIF file generated by openbabel 3.1.0, see https://openbabel.org
data_I
_chemical_name_common 'image0'
_cell_length_a 24.402
_cell_length_b 9.3439
_cell_length_c 10.3469
_cell_angle_alpha 90
_cell_angle_beta 97.371
_cell_angle_gamma 90
_space_group_name_H-M_alt 'P 1'
_space_group_name_Hall 'P 1'
loop_
    _symmetry_equiv_pos_as_xyz
    x,y,z
loop_
    _atom_site_label
    _atom_site_type_symbol
    _atom_site_fract_x
    _atom_site_fract_y
    _atom_site_fract_z
    _atom_site_occupancy
    C1       C        0.17754    0.17840    0.99290    1.000
    H1       H        0.16160    0.21670    0.91400    1.000
    O1       O        0.06999    0.09560    0.90450    1.000
    C2       C        0.23275    0.20420    0.03740    1.000
    C3       C        0.14656    0.09630    0.06580    1.000
    C4       C        0.08608    0.06980    0.02010    1.000
    C5       C        0.17140    0.04060    0.18180    1.000
    H2       H        0.15130    0.98640    0.23470    1.000
    N1       N        0.25764    0.14830    0.14860    1.000
    C6       C        0.22700    0.06740    0.21750    1.000
    H3       H        0.24400    0.02660    0.29430    1.000
    O2       O        0.05726    0.02310    0.10010    1.000
    O3       O        0.03070    0.25090    0.68300    1.000
    O4       O        0.02490    0.44700    0.75700    1.000
    C7       C        0.67754    0.67840    0.99290    1.000
    H4       H        0.66160    0.71670    0.91400    1.000
    O5       O        0.56999    0.59560    0.90450    1.000
    C8       C        0.73275    0.70420    0.03740    1.000
    C9       C        0.64656    0.59630    0.06580    1.000
    C10      C        0.58608    0.56980    0.02010    1.000
    C11      C        0.67140    0.54060    0.18180    1.000
    H5       H        0.65130    0.48640    0.23470    1.000
    N2       N        0.75764    0.64830    0.14860    1.000
    C12      C        0.72700    0.56740    0.21750    1.000
    H6       H        0.74400    0.52660    0.29430    1.000
    O6       O        0.55726    0.52310    0.10010    1.000
    O7       O        0.53070    0.75090    0.68300    1.000
    O8       O        0.52490    0.94700    0.75700    1.000
    C13      C        0.82246    0.17840    0.50710    1.000
    H7       H        0.83840    0.21670    0.58600    1.000
    O9       O        0.93001    0.09560    0.59550    1.000
    C14      C        0.76725    0.20420    0.46260    1.000
    C15      C        0.85344    0.09630    0.43420    1.000
    C16      C        0.91392    0.06980    0.47990    1.000
    C17      C        0.82860    0.04060    0.31820    1.000
    H8       H        0.84870    0.98640    0.26530    1.000
    N3       N        0.74236    0.14830    0.35140    1.000
    C18      C        0.77300    0.06740    0.28250    1.000
    H9       H        0.75600    0.02660    0.20570    1.000
    O10      O        0.94274    0.02310    0.39990    1.000
    O11      O        0.96930    0.25090    0.81700    1.000
    O12      O        0.97510    0.44700    0.74300    1.000
    C19      C        0.32246    0.67840    0.50710    1.000
    H10      H        0.33840    0.71670    0.58600    1.000
    O13      O        0.43001    0.59560    0.59550    1.000
    C20      C        0.26725    0.70420    0.46260    1.000
    C21      C        0.35344    0.59630    0.43420    1.000
    C22      C        0.41392    0.56980    0.47990    1.000
    C23      C        0.32860    0.54060    0.31820    1.000
    H11      H        0.34870    0.48640    0.26530    1.000
    N4       N        0.24236    0.64830    0.35140    1.000
    C24      C        0.27300    0.56740    0.28250    1.000
    H12      H        0.25600    0.52660    0.20570    1.000
    O14      O        0.44274    0.52310    0.39990    1.000
    O15      O        0.46930    0.75090    0.81700    1.000
    O16      O        0.47510    0.94700    0.74300    1.000
    C25      C        0.82246    0.82160    0.00710    1.000
    H13      H        0.83840    0.78330    0.08600    1.000
    O17      O        0.93001    0.90440    0.09550    1.000
    C26      C        0.76725    0.79580    0.96260    1.000
    C27      C        0.85344    0.90370    0.93420    1.000
    C28      C        0.91392    0.93020    0.97990    1.000
    C29      C        0.82860    0.95940    0.81820    1.000
    H14      H        0.84870    0.01360    0.76530    1.000
    N5       N        0.74236    0.85170    0.85140    1.000
    C30      C        0.77300    0.93260    0.78250    1.000
    H15      H        0.75600    0.97340    0.70570    1.000
    O18      O        0.94274    0.97690    0.89990    1.000
    O19      O        0.96930    0.74910    0.31700    1.000
    O20      O        0.97510    0.55300    0.24300    1.000
    C31      C        0.32246    0.32160    0.00710    1.000
    H16      H        0.33840    0.28330    0.08600    1.000
    O21      O        0.43001    0.40440    0.09550    1.000
    C32      C        0.26725    0.29580    0.96260    1.000
    C33      C        0.35344    0.40370    0.93420    1.000
    C34      C        0.41392    0.43020    0.97990    1.000
    C35      C        0.32860    0.45940    0.81820    1.000
    H17      H        0.34870    0.51360    0.76530    1.000
    N6       N        0.24236    0.35170    0.85140    1.000
    C36      C        0.27300    0.43260    0.78250    1.000
    H18      H        0.25600    0.47340    0.70570    1.000
    O22      O        0.44274    0.47690    0.89990    1.000
    O23      O        0.46930    0.24910    0.31700    1.000
    O24      O        0.47510    0.05300    0.24300    1.000
    C37      C        0.17754    0.82160    0.49290    1.000
    H19      H        0.16160    0.78330    0.41400    1.000
    O25      O        0.06999    0.90440    0.40450    1.000
    C38      C        0.23275    0.79580    0.53740    1.000
    C39      C        0.14656    0.90370    0.56580    1.000
    C40      C        0.08608    0.93020    0.52010    1.000
    C41      C        0.17140    0.95940    0.68180    1.000
    H20      H        0.15130    0.01360    0.73470    1.000
    N7       N        0.25764    0.85170    0.64860    1.000
    C42      C        0.22700    0.93260    0.71750    1.000
    H21      H        0.24400    0.97340    0.79430    1.000
    O26      O        0.05726    0.97690    0.60010    1.000
    O27      O        0.03070    0.74910    0.18300    1.000
    O28      O        0.02490    0.55300    0.25700    1.000
    C43      C        0.67754    0.32160    0.49290    1.000
    H22      H        0.66160    0.28330    0.41400    1.000
    O29      O        0.56999    0.40440    0.40450    1.000
    C44      C        0.73275    0.29580    0.53740    1.000
    C45      C        0.64656    0.40370    0.56580    1.000
    C46      C        0.58608    0.43020    0.52010    1.000
    C47      C        0.67140    0.45940    0.68180    1.000
    H23      H        0.65130    0.51360    0.73470    1.000
    N8       N        0.75764    0.35170    0.64860    1.000
    C48      C        0.72700    0.43260    0.71750    1.000
    H24      H        0.74400    0.47340    0.79430    1.000
    O30      O        0.55726    0.47690    0.60010    1.000
    O31      O        0.53070    0.24910    0.18300    1.000
    O32      O        0.52490    0.05300    0.25700    1.000
    Dy1      Dy       0.00000    0.01310    0.75000    1.000
    N9       N        0.00000    0.31430    0.75000    1.000
    Dy2      Dy       0.50000    0.51310    0.75000    1.000
    N10      N        0.50000    0.81430    0.75000    1.000
    Dy3      Dy       0.00000    0.98690    0.25000    1.000
    N11      N        0.00000    0.68570    0.25000    1.000
    Dy4      Dy       0.50000    0.48690    0.25000    1.000
    N12      N        0.50000    0.18570    0.25000    1.000
