# CIF file generated by openbabel 3.1.0, see https://openbabel.org
data_I
_chemical_name_common 'ZAYKER_charged'
_cell_length_a 12.232
_cell_length_b 21.818
_cell_length_c 22.784
_cell_angle_alpha 90
_cell_angle_beta 91.401
_cell_angle_gamma 90
_space_group_name_H-M_alt 'P 1'
_space_group_name_Hall 'P 1'
loop_
    _symmetry_equiv_pos_as_xyz
    x,y,z
loop_
    _atom_site_label
    _atom_site_type_symbol
    _atom_site_fract_x
    _atom_site_fract_y
    _atom_site_fract_z
    _atom_site_occupancy
    Sm1      Sm       0.86717    0.28997    0.91336    1.000
    Sm2      Sm       0.35248    0.38380    0.91550    1.000
    Sm3      Sm       0.13283    0.78997    0.58664    1.000
    Sm4      Sm       0.64752    0.88380    0.58450    1.000
    Sm5      Sm       0.13283    0.71003    0.08664    1.000
    Sm6      Sm       0.64752    0.61620    0.08450    1.000
    Sm7      Sm       0.86717    0.21003    0.41336    1.000
    Sm8      Sm       0.35248    0.11620    0.41550    1.000
    H1       H        0.38080    0.42450    0.76400    1.000
    H2       H        0.30390    0.41400    0.66620    1.000
    H3       H        0.51800    0.33780    0.75500    1.000
    H4       H        0.77580    0.29300    0.66610    1.000
    H5       H        0.04540    0.34520    0.73980    1.000
    H6       H        0.88350    0.27820    0.75370    1.000
    H7       H        0.61920    0.92450    0.73600    1.000
    H8       H        0.69610    0.91400    0.83380    1.000
    H9       H        0.48200    0.83780    0.74500    1.000
    H10      H        0.22420    0.79300    0.83390    1.000
    H11      H        0.95460    0.84520    0.76020    1.000
    H12      H        0.11650    0.77820    0.74630    1.000
    H13      H        0.61920    0.57550    0.23600    1.000
    H14      H        0.69610    0.58600    0.33380    1.000
    H15      H        0.48200    0.66220    0.24500    1.000
    H16      H        0.22420    0.70700    0.33390    1.000
    H17      H        0.95460    0.65480    0.26020    1.000
    H18      H        0.11650    0.72180    0.24630    1.000
    H19      H        0.38080    0.07550    0.26400    1.000
    H20      H        0.30390    0.08600    0.16620    1.000
    H21      H        0.51800    0.16220    0.25500    1.000
    H22      H        0.77580    0.20700    0.16610    1.000
    H23      H        0.04540    0.15480    0.23980    1.000
    H24      H        0.88350    0.22180    0.25370    1.000
    W1       W        0.22111    0.07853    0.89093    1.000
    W2       W        0.15485    0.95555    0.80658    1.000
    W3       W        0.30711    0.21919    0.81907    1.000
    W4       W        0.32834    0.22738    0.67469    1.000
    W5       W        0.50585    0.14335    0.75485    1.000
    W6       W        0.18351    0.96557    0.64745    1.000
    W7       W        0.26160    0.09095    0.58534    1.000
    W8       W        0.43830    0.01059    0.66212    1.000
    W9       W        0.02360    0.16764    0.79947    1.000
    W10      W        0.96256    0.04665    0.71841    1.000
    W11      W        0.41884    0.00081    0.82197    1.000
    W12      W        0.04408    0.17945    0.65725    1.000
    W13      W        0.77889    0.57853    0.60907    1.000
    W14      W        0.84515    0.45555    0.69342    1.000
    W15      W        0.69289    0.71919    0.68093    1.000
    W16      W        0.67166    0.72738    0.82531    1.000
    W17      W        0.49415    0.64335    0.74515    1.000
    W18      W        0.81649    0.46557    0.85255    1.000
    W19      W        0.73840    0.59095    0.91466    1.000
    W20      W        0.56170    0.51059    0.83788    1.000
    W21      W        0.97640    0.66764    0.70053    1.000
    W22      W        0.03744    0.54665    0.78159    1.000
    W23      W        0.58116    0.50081    0.67803    1.000
    W24      W        0.95592    0.67945    0.84275    1.000
    W25      W        0.77889    0.92147    0.10907    1.000
    W26      W        0.84515    0.04445    0.19342    1.000
    W27      W        0.69289    0.78081    0.18093    1.000
    W28      W        0.67166    0.77262    0.32531    1.000
    W29      W        0.49415    0.85665    0.24515    1.000
    W30      W        0.81649    0.03443    0.35255    1.000
    W31      W        0.73840    0.90905    0.41466    1.000
    W32      W        0.56170    0.98941    0.33788    1.000
    W33      W        0.97640    0.83236    0.20053    1.000
    W34      W        0.03744    0.95335    0.28159    1.000
    W35      W        0.58116    0.99919    0.17803    1.000
    W36      W        0.95592    0.82055    0.34275    1.000
    W37      W        0.22111    0.42147    0.39093    1.000
    W38      W        0.15485    0.54445    0.30658    1.000
    W39      W        0.30711    0.28081    0.31907    1.000
    W40      W        0.32834    0.27262    0.17469    1.000
    W41      W        0.50585    0.35665    0.25485    1.000
    W42      W        0.18351    0.53443    0.14745    1.000
    W43      W        0.26160    0.40905    0.08534    1.000
    W44      W        0.43830    0.48941    0.16212    1.000
    W45      W        0.02360    0.33236    0.29947    1.000
    W46      W        0.96256    0.45335    0.21841    1.000
    W47      W        0.41884    0.49919    0.32197    1.000
    W48      W        0.04408    0.32055    0.15725    1.000
    C1       C        0.10400    0.35100    0.85810    1.000
    C2       C        0.61000    0.32800    0.87150    1.000
    C3       C        0.30900    0.40760    0.75950    1.000
    C4       C        0.65500    0.31500    0.81050    1.000
    C5       C        0.16400    0.36700    0.80400    1.000
    C6       C        0.26500    0.40200    0.70050    1.000
    C7       C        0.59100    0.32200    0.75470    1.000
    C8       C        0.74300    0.29600    0.70400    1.000
    C9       C        0.11700    0.36300    0.74500    1.000
    C10      C        0.80700    0.28600    0.75600    1.000
    C11      C        0.89600    0.85100    0.64190    1.000
    C12      C        0.39000    0.82800    0.62850    1.000
    C13      C        0.69100    0.90760    0.74050    1.000
    C14      C        0.34500    0.81500    0.68950    1.000
    C15      C        0.83600    0.86700    0.69600    1.000
    C16      C        0.73500    0.90200    0.79950    1.000
    C17      C        0.40900    0.82200    0.74530    1.000
    C18      C        0.25700    0.79600    0.79600    1.000
    C19      C        0.88300    0.86300    0.75500    1.000
    C20      C        0.19300    0.78600    0.74400    1.000
    C21      C        0.89600    0.64900    0.14190    1.000
    C22      C        0.39000    0.67200    0.12850    1.000
    C23      C        0.69100    0.59240    0.24050    1.000
    C24      C        0.34500    0.68500    0.18950    1.000
    C25      C        0.83600    0.63300    0.19600    1.000
    C26      C        0.73500    0.59800    0.29950    1.000
    C27      C        0.40900    0.67800    0.24530    1.000
    C28      C        0.25700    0.70400    0.29600    1.000
    C29      C        0.88300    0.63700    0.25500    1.000
    C30      C        0.19300    0.71400    0.24400    1.000
    C31      C        0.10400    0.14900    0.35810    1.000
    C32      C        0.61000    0.17200    0.37150    1.000
    C33      C        0.30900    0.09240    0.25950    1.000
    C34      C        0.65500    0.18500    0.31050    1.000
    C35      C        0.16400    0.13300    0.30400    1.000
    C36      C        0.26500    0.09800    0.20050    1.000
    C37      C        0.59100    0.17800    0.25470    1.000
    C38      C        0.74300    0.20400    0.20400    1.000
    C39      C        0.11700    0.13700    0.24500    1.000
    C40      C        0.80700    0.21400    0.25600    1.000
    N1       N        0.26400    0.39180    0.80670    1.000
    N2       N        0.76100    0.29610    0.81060    1.000
    N3       N        0.16500    0.37950    0.69800    1.000
    N4       N        0.63000    0.30680    0.70810    1.000
    N5       N        0.73600    0.89180    0.69330    1.000
    N6       N        0.23900    0.79610    0.68940    1.000
    N7       N        0.83500    0.87950    0.80200    1.000
    N8       N        0.37000    0.80680    0.79190    1.000
    N9       N        0.73600    0.60820    0.19330    1.000
    N10      N        0.23900    0.70390    0.18940    1.000
    N11      N        0.83500    0.62050    0.30200    1.000
    N12      N        0.37000    0.69320    0.29190    1.000
    N13      N        0.26400    0.10820    0.30670    1.000
    N14      N        0.76100    0.20390    0.31060    1.000
    N15      N        0.16500    0.12050    0.19800    1.000
    N16      N        0.63000    0.19320    0.20810    1.000
    O1       O        0.20100    0.08650    0.96010    1.000
    O2       O        0.55400    0.97110    0.64020    1.000
    O3       O        0.93800    0.20960    0.84280    1.000
    O4       O        0.01400    0.32570    0.85240    1.000
    O5       O        0.84100    0.01300    0.70960    1.000
    O6       O        0.26700    0.10630    0.51520    1.000
    O7       O        0.14700    0.89910    0.61280    1.000
    O8       O        0.66600    0.31970    0.91820    1.000
    O9       O        0.47500    0.20860    0.69550    1.000
    O10      O        0.75800    0.20030    0.91890    1.000
    O11      O        0.51500    0.34800    0.87470    1.000
    O12      O        0.15700    0.36390    0.90750    1.000
    O13      O        0.27600    0.04860    0.66920    1.000
    O14      O        0.51900    0.95970    0.85830    1.000
    O15      O        0.97300    0.22060    0.60740    1.000
    O16      O        0.49000    0.43130    0.98010    1.000
    O17      O        0.47800    0.07660    0.80890    1.000
    O18      O        0.10300    0.11520    0.72810    1.000
    O19      O        0.17600    0.22640    0.66820    1.000
    O20      O        0.94100    0.11370    0.65870    1.000
    O21      O        0.35600    0.29030    0.63570    1.000
    O22      O        0.50100    0.08200    0.69470    1.000
    O23      O        0.31900    0.27090    0.75040    1.000
    O24      O        0.09300    0.11590    0.85440    1.000
    O25      O        0.46100    0.20320    0.81420    1.000
    O26      O        0.25900    0.48200    0.92230    1.000
    O27      O        0.34100    0.94880    0.64510    1.000
    O28      O        0.18700    0.01390    0.57610    1.000
    O29      O        0.99500    0.34920    0.97850    1.000
    O30      O        0.99000    0.21700    0.96960    1.000
    O31      O        0.91900    0.10490    0.77700    1.000
    O32      O        0.33300    0.16380    0.61730    1.000
    O33      O        0.25300    0.04410    0.80050    1.000
    O34      O        0.14400    0.99970    0.88080    1.000
    O35      O        0.15400    0.21600    0.80350    1.000
    O36      O        0.10200    0.88900    0.82270    1.000
    O37      O        0.31000    0.93670    0.82650    1.000
    O38      O        0.03700    0.99670    0.77750    1.000
    O39      O        0.40800    0.05000    0.58830    1.000
    O40      O        0.43800    0.98190    0.74520    1.000
    O41      O        0.32040    0.28030    0.86950    1.000
    O42      O        0.41200    0.29350    0.98330    1.000
    O43      O        0.79900    0.29400    0.01650    1.000
    O44      O        0.19300    0.94150    0.72600    1.000
    O45      O        0.98900    0.20970    0.72950    1.000
    O46      O        0.32900    0.15550    0.74420    1.000
    O47      O        0.04800    0.00210    0.66360    1.000
    O48      O        0.35700    0.04100    0.89260    1.000
    O49      O        0.30100    0.15250    0.86560    1.000
    O50      O        0.12300    0.12560    0.60460    1.000
    O51      O        0.63500    0.15300    0.75890    1.000
    O52      O        0.79900    0.58650    0.53990    1.000
    O53      O        0.44600    0.47110    0.85980    1.000
    O54      O        0.06200    0.70960    0.65720    1.000
    O55      O        0.98600    0.82570    0.64760    1.000
    O56      O        0.15900    0.51300    0.79040    1.000
    O57      O        0.73300    0.60630    0.98480    1.000
    O58      O        0.85300    0.39910    0.88720    1.000
    O59      O        0.33400    0.81970    0.58180    1.000
    O60      O        0.52500    0.70860    0.80450    1.000
    O61      O        0.24200    0.70030    0.58110    1.000
    O62      O        0.48500    0.84800    0.62530    1.000
    O63      O        0.84300    0.86390    0.59250    1.000
    O64      O        0.72400    0.54860    0.83080    1.000
    O65      O        0.48100    0.45970    0.64170    1.000
    O66      O        0.02700    0.72060    0.89260    1.000
    O67      O        0.51000    0.93130    0.51990    1.000
    O68      O        0.52200    0.57660    0.69110    1.000
    O69      O        0.89700    0.61520    0.77190    1.000
    O70      O        0.82400    0.72640    0.83180    1.000
    O71      O        0.05900    0.61370    0.84130    1.000
    O72      O        0.64400    0.79030    0.86430    1.000
    O73      O        0.49900    0.58200    0.80530    1.000
    O74      O        0.68100    0.77090    0.74960    1.000
    O75      O        0.90700    0.61590    0.64560    1.000
    O76      O        0.53900    0.70320    0.68580    1.000
    O77      O        0.74100    0.98200    0.57770    1.000
    O78      O        0.65900    0.44880    0.85490    1.000
    O79      O        0.81300    0.51390    0.92390    1.000
    O80      O        0.00500    0.84920    0.52150    1.000
    O81      O        0.01000    0.71700    0.53040    1.000
    O82      O        0.08100    0.60490    0.72300    1.000
    O83      O        0.66700    0.66380    0.88270    1.000
    O84      O        0.74700    0.54410    0.69950    1.000
    O85      O        0.85600    0.49970    0.61920    1.000
    O86      O        0.84600    0.71600    0.69650    1.000
    O87      O        0.89800    0.38900    0.67730    1.000
    O88      O        0.69000    0.43670    0.67350    1.000
    O89      O        0.96300    0.49670    0.72250    1.000
    O90      O        0.59200    0.55000    0.91170    1.000
    O91      O        0.56200    0.48190    0.75480    1.000
    O92      O        0.67960    0.78030    0.63050    1.000
    O93      O        0.58800    0.79350    0.51670    1.000
    O94      O        0.20100    0.79400    0.48350    1.000
    O95      O        0.80700    0.44150    0.77400    1.000
    O96      O        0.01100    0.70970    0.77050    1.000
    O97      O        0.67100    0.65550    0.75580    1.000
    O98      O        0.95200    0.50210    0.83640    1.000
    O99      O        0.64300    0.54100    0.60740    1.000
    O100     O        0.69900    0.65250    0.63440    1.000
    O101     O        0.87700    0.62560    0.89540    1.000
    O102     O        0.36500    0.65300    0.74110    1.000
    O103     O        0.79900    0.91350    0.03990    1.000
    O104     O        0.44600    0.02890    0.35980    1.000
    O105     O        0.06200    0.79040    0.15720    1.000
    O106     O        0.98600    0.67430    0.14760    1.000
    O107     O        0.15900    0.98700    0.29040    1.000
    O108     O        0.73300    0.89370    0.48480    1.000
    O109     O        0.85300    0.10090    0.38720    1.000
    O110     O        0.33400    0.68030    0.08180    1.000
    O111     O        0.52500    0.79140    0.30450    1.000
    O112     O        0.24200    0.79970    0.08110    1.000
    O113     O        0.48500    0.65200    0.12530    1.000
    O114     O        0.84300    0.63610    0.09250    1.000
    O115     O        0.72400    0.95140    0.33080    1.000
    O116     O        0.48100    0.04030    0.14170    1.000
    O117     O        0.02700    0.77940    0.39260    1.000
    O118     O        0.51000    0.56870    0.01990    1.000
    O119     O        0.52200    0.92340    0.19110    1.000
    O120     O        0.89700    0.88480    0.27190    1.000
    O121     O        0.82400    0.77360    0.33180    1.000
    O122     O        0.05900    0.88630    0.34130    1.000
    O123     O        0.64400    0.70970    0.36430    1.000
    O124     O        0.49900    0.91800    0.30530    1.000
    O125     O        0.68100    0.72910    0.24960    1.000
    O126     O        0.90700    0.88410    0.14560    1.000
    O127     O        0.53900    0.79680    0.18580    1.000
    O128     O        0.74100    0.51800    0.07770    1.000
    O129     O        0.65900    0.05120    0.35490    1.000
    O130     O        0.81300    0.98610    0.42390    1.000
    O131     O        0.00500    0.65080    0.02150    1.000
    O132     O        0.01000    0.78300    0.03040    1.000
    O133     O        0.08100    0.89510    0.22300    1.000
    O134     O        0.66700    0.83620    0.38270    1.000
    O135     O        0.74700    0.95590    0.19950    1.000
    O136     O        0.85600    0.00030    0.11920    1.000
    O137     O        0.84600    0.78400    0.19650    1.000
    O138     O        0.89800    0.11100    0.17730    1.000
    O139     O        0.69000    0.06330    0.17350    1.000
    O140     O        0.96300    0.00330    0.22250    1.000
    O141     O        0.59200    0.95000    0.41170    1.000
    O142     O        0.56200    0.01810    0.25480    1.000
    O143     O        0.67960    0.71970    0.13050    1.000
    O144     O        0.58800    0.70650    0.01670    1.000
    O145     O        0.20100    0.70600    0.98350    1.000
    O146     O        0.80700    0.05850    0.27400    1.000
    O147     O        0.01100    0.79030    0.27050    1.000
    O148     O        0.67100    0.84450    0.25580    1.000
    O149     O        0.95200    0.99790    0.33640    1.000
    O150     O        0.64300    0.95900    0.10740    1.000
    O151     O        0.69900    0.84750    0.13440    1.000
    O152     O        0.87700    0.87440    0.39540    1.000
    O153     O        0.36500    0.84700    0.24110    1.000
    O154     O        0.20100    0.41350    0.46010    1.000
    O155     O        0.55400    0.52890    0.14020    1.000
    O156     O        0.93800    0.29040    0.34280    1.000
    O157     O        0.01400    0.17430    0.35240    1.000
    O158     O        0.84100    0.48700    0.20960    1.000
    O159     O        0.26700    0.39370    0.01520    1.000
    O160     O        0.14700    0.60090    0.11280    1.000
    O161     O        0.66600    0.18030    0.41820    1.000
    O162     O        0.47500    0.29140    0.19550    1.000
    O163     O        0.75800    0.29970    0.41890    1.000
    O164     O        0.51500    0.15200    0.37470    1.000
    O165     O        0.15700    0.13610    0.40750    1.000
    O166     O        0.27600    0.45140    0.16920    1.000
    O167     O        0.51900    0.54030    0.35830    1.000
    O168     O        0.97300    0.27940    0.10740    1.000
    O169     O        0.49000    0.06870    0.48010    1.000
    O170     O        0.47800    0.42340    0.30890    1.000
    O171     O        0.10300    0.38480    0.22810    1.000
    O172     O        0.17600    0.27360    0.16820    1.000
    O173     O        0.94100    0.38630    0.15870    1.000
    O174     O        0.35600    0.20970    0.13570    1.000
    O175     O        0.50100    0.41800    0.19470    1.000
    O176     O        0.31900    0.22910    0.25040    1.000
    O177     O        0.09300    0.38410    0.35440    1.000
    O178     O        0.46100    0.29680    0.31420    1.000
    O179     O        0.25900    0.01800    0.42230    1.000
    O180     O        0.34100    0.55120    0.14510    1.000
    O181     O        0.18700    0.48610    0.07610    1.000
    O182     O        0.99500    0.15080    0.47850    1.000
    O183     O        0.99000    0.28300    0.46960    1.000
    O184     O        0.91900    0.39510    0.27700    1.000
    O185     O        0.33300    0.33620    0.11730    1.000
    O186     O        0.25300    0.45590    0.30050    1.000
    O187     O        0.14400    0.50030    0.38080    1.000
    O188     O        0.15400    0.28400    0.30350    1.000
    O189     O        0.10200    0.61100    0.32270    1.000
    O190     O        0.31000    0.56330    0.32650    1.000
    O191     O        0.03700    0.50330    0.27750    1.000
    O192     O        0.40800    0.45000    0.08830    1.000
    O193     O        0.43800    0.51810    0.24520    1.000
    O194     O        0.32040    0.21970    0.36950    1.000
    O195     O        0.41200    0.20650    0.48330    1.000
    O196     O        0.79900    0.20600    0.51650    1.000
    O197     O        0.19300    0.55850    0.22600    1.000
    O198     O        0.98900    0.29030    0.22950    1.000
    O199     O        0.32900    0.34450    0.24420    1.000
    O200     O        0.04800    0.49790    0.16360    1.000
    O201     O        0.35700    0.45900    0.39260    1.000
    O202     O        0.30100    0.34750    0.36560    1.000
    O203     O        0.12300    0.37440    0.10460    1.000
    O204     O        0.63500    0.34700    0.25890    1.000
    H25      H        0.92260    0.46180    0.44290    1.000
    H26      H        0.86960    0.52560    0.42800    1.000
    H27      H        0.84720    0.46930    0.38670    1.000
    H28      H        0.96330    0.49980    0.38930    1.000
    N17      N        0.90100    0.48900    0.41200    1.000
    H29      H        0.73400    0.09630    0.08620    1.000
    H30      H        0.64560    0.12280    0.04210    1.000
    H31      H        0.69110    0.05630    0.03330    1.000
    H32      H        0.76610    0.11320    0.02200    1.000
    N18      N        0.70900    0.09700    0.04600    1.000
    H33      H        0.07740    0.96180    0.05710    1.000
    H34      H        0.13040    0.02560    0.07200    1.000
    H35      H        0.15280    0.96930    0.11330    1.000
    H36      H        0.03670    0.99980    0.11070    1.000
    N19      N        0.09900    0.98900    0.08800    1.000
    H37      H        0.26600    0.59630    0.41380    1.000
    H38      H        0.35440    0.62280    0.45790    1.000
    H39      H        0.30890    0.55630    0.46670    1.000
    H40      H        0.23390    0.61320    0.47800    1.000
    N20      N        0.29100    0.59700    0.45400    1.000
    H41      H        0.07740    0.53820    0.55710    1.000
    H42      H        0.13040    0.47440    0.57200    1.000
    H43      H        0.15280    0.53070    0.61330    1.000
    H44      H        0.03670    0.50020    0.61070    1.000
    N21      N        0.09900    0.51100    0.58800    1.000
    H45      H        0.26600    0.90370    0.91380    1.000
    H46      H        0.35440    0.87720    0.95790    1.000
    H47      H        0.30890    0.94370    0.96670    1.000
    H48      H        0.23390    0.88680    0.97800    1.000
    N22      N        0.29100    0.90300    0.95400    1.000
    H49      H        0.92260    0.03820    0.94290    1.000
    H50      H        0.86960    0.97440    0.92800    1.000
    H51      H        0.84720    0.03070    0.88670    1.000
    H52      H        0.96330    0.00020    0.88930    1.000
    N23      N        0.90100    0.01100    0.91200    1.000
    H53      H        0.73400    0.40370    0.58620    1.000
    H54      H        0.64560    0.37720    0.54210    1.000
    H55      H        0.69110    0.44370    0.53330    1.000
    H56      H        0.76610    0.38680    0.52200    1.000
    N24      N        0.70900    0.40300    0.54600    1.000
