# CIF file generated by openbabel 3.1.0, see https://openbabel.org
data_I
_chemical_name_common 'OQESEJ_clean'
_cell_length_a 7.2751
_cell_length_b 13.3023
_cell_length_c 30.7749
_cell_angle_alpha 88.2321
_cell_angle_beta 83.5221
_cell_angle_gamma 74.1302
_space_group_name_H-M_alt 'P 1'
_space_group_name_Hall 'P 1'
loop_
    _symmetry_equiv_pos_as_xyz
    x,y,z
loop_
    _atom_site_label
    _atom_site_type_symbol
    _atom_site_fract_x
    _atom_site_fract_y
    _atom_site_fract_z
    _atom_site_occupancy
    Cd1      Cd       0.15573    0.68854    0.25000    1.000
    Cd2      Cd       0.84427    0.31146    0.75000    1.000
    H1       H        0.89750    0.19760    0.14430    1.000
    H2       H        0.20380    0.07460    0.14560    1.000
    H3       H        0.65130    0.78240    0.03820    1.000
    H4       H        0.62280    0.71500    0.96430    1.000
    H5       H        0.31730    0.83560    0.14440    1.000
    H6       H        0.53120    0.78000    0.19580    1.000
    H7       H        0.90050    0.91620    0.12850    1.000
    H8       H        0.69450    0.96880    0.07600    1.000
    H9       H        0.38850    0.21400    0.11960    1.000
    H10      H        0.21090    0.34760    0.16640    1.000
    H11      H        0.60140    0.50820    0.13490    1.000
    H12      H        0.77890    0.37480    0.08810    1.000
    H13      H        0.90490    0.19760    0.35570    1.000
    H14      H        0.72160    0.07460    0.35440    1.000
    H15      H        0.56630    0.78240    0.46180    1.000
    H16      H        0.66220    0.71500    0.53570    1.000
    H17      H        0.84710    0.83560    0.35560    1.000
    H18      H        0.68880    0.78000    0.30420    1.000
    H19      H        0.18330    0.91620    0.37150    1.000
    H20      H        0.33670    0.96880    0.42400    1.000
    H21      H        0.39750    0.21400    0.38040    1.000
    H22      H        0.44150    0.34760    0.33360    1.000
    H23      H        0.89040    0.50820    0.36510    1.000
    H24      H        0.84630    0.37480    0.41190    1.000
    H25      H        0.10250    0.80240    0.85570    1.000
    H26      H        0.79620    0.92540    0.85440    1.000
    H27      H        0.34870    0.21760    0.96180    1.000
    H28      H        0.37720    0.28500    0.03570    1.000
    H29      H        0.68270    0.16440    0.85560    1.000
    H30      H        0.46880    0.22000    0.80420    1.000
    H31      H        0.09950    0.08380    0.87150    1.000
    H32      H        0.30550    0.03120    0.92400    1.000
    H33      H        0.61150    0.78600    0.88040    1.000
    H34      H        0.78910    0.65240    0.83360    1.000
    H35      H        0.39860    0.49180    0.86510    1.000
    H36      H        0.22110    0.62520    0.91190    1.000
    H37      H        0.09510    0.80240    0.64430    1.000
    H38      H        0.27840    0.92540    0.64560    1.000
    H39      H        0.43370    0.21760    0.53820    1.000
    H40      H        0.33780    0.28500    0.46430    1.000
    H41      H        0.15290    0.16440    0.64440    1.000
    H42      H        0.31120    0.22000    0.69580    1.000
    H43      H        0.81670    0.08380    0.62850    1.000
    H44      H        0.66330    0.03120    0.57600    1.000
    H45      H        0.60250    0.78600    0.61960    1.000
    H46      H        0.55850    0.65240    0.66640    1.000
    H47      H        0.10960    0.49180    0.63490    1.000
    H48      H        0.15370    0.62520    0.58810    1.000
    Pd1      Pd       0.00000    0.00000    0.00000    1.000
    Pd2      Pd       0.00000    0.00000    0.50000    1.000
    C1       C        0.89440    0.13500    0.08160    1.000
    C2       C        0.96120    0.14960    0.12250    1.000
    C3       C        0.12700    0.08200    0.12290    1.000
    C4       C        0.17890    0.01880    0.08330    1.000
    C5       C        0.34330    0.94100    0.07140    1.000
    C6       C        0.38270    0.88900    0.03320    1.000
    C7       C        0.54860    0.80680    0.02160    1.000
    C8       C        0.53220    0.76760    0.98040    1.000
    C9       C        0.35280    0.82420    0.96880    1.000
    C10      C        0.71970    0.19360    0.06880    1.000
    C11      C        0.48190    0.91060    0.10540    1.000
    C12      C        0.43470    0.85180    0.14120    1.000
    C13      C        0.56340    0.81800    0.17160    1.000
    C14      C        0.74170    0.84000    0.16660    1.000
    C15      C        0.78450    0.89860    0.13130    1.000
    C16      C        0.66010    0.93200    0.10030    1.000
    C17      C        0.88380    0.79340    0.19870    1.000
    C18      C        0.60140    0.28120    0.09920    1.000
    C19      C        0.43110    0.27300    0.12270    1.000
    C20      C        0.32450    0.35300    0.15070    1.000
    C21      C        0.38840    0.44120    0.15530    1.000
    C22      C        0.55830    0.44940    0.13180    1.000
    C23      C        0.66540    0.36920    0.10380    1.000
    C24      C        0.28560    0.52680    0.18910    1.000
    C25      C        0.97060    0.13500    0.41840    1.000
    C26      C        0.88920    0.14960    0.37750    1.000
    C27      C        0.79100    0.08200    0.37710    1.000
    C28      C        0.80230    0.01880    0.41670    1.000
    C29      C        0.71570    0.94100    0.42860    1.000
    C30      C        0.72830    0.88900    0.46680    1.000
    C31      C        0.64460    0.80680    0.47840    1.000
    C32      C        0.70020    0.76760    0.51960    1.000
    C33      C        0.82300    0.82420    0.53120    1.000
    C34      C        0.08670    0.19360    0.43120    1.000
    C35      C        0.60750    0.91060    0.39460    1.000
    C36      C        0.71350    0.85180    0.35880    1.000
    C37      C        0.61860    0.81800    0.32840    1.000
    C38      C        0.41830    0.84000    0.33340    1.000
    C39      C        0.31690    0.89860    0.36870    1.000
    C40      C        0.40790    0.93200    0.39970    1.000
    C41      C        0.32280    0.79340    0.30130    1.000
    C42      C        0.11740    0.28120    0.40080    1.000
    C43      C        0.29590    0.27300    0.37730    1.000
    C44      C        0.32250    0.35300    0.34930    1.000
    C45      C        0.17040    0.44120    0.34470    1.000
    C46      C        0.99230    0.44940    0.36820    1.000
    C47      C        0.96540    0.36920    0.39620    1.000
    C48      C        0.18760    0.52680    0.31090    1.000
    C49      C        0.10560    0.86500    0.91840    1.000
    C50      C        0.03880    0.85040    0.87750    1.000
    C51      C        0.87300    0.91800    0.87710    1.000
    C52      C        0.82110    0.98120    0.91670    1.000
    C53      C        0.65670    0.05900    0.92860    1.000
    C54      C        0.61730    0.11100    0.96680    1.000
    C55      C        0.45140    0.19320    0.97840    1.000
    C56      C        0.46780    0.23240    0.01960    1.000
    C57      C        0.64720    0.17580    0.03120    1.000
    C58      C        0.28030    0.80640    0.93120    1.000
    C59      C        0.51810    0.08940    0.89460    1.000
    C60      C        0.56530    0.14820    0.85880    1.000
    C61      C        0.43660    0.18200    0.82840    1.000
    C62      C        0.25830    0.16000    0.83340    1.000
    C63      C        0.21550    0.10140    0.86870    1.000
    C64      C        0.33990    0.06800    0.89970    1.000
    C65      C        0.11620    0.20660    0.80130    1.000
    C66      C        0.39860    0.71880    0.90080    1.000
    C67      C        0.56890    0.72700    0.87730    1.000
    C68      C        0.67550    0.64700    0.84930    1.000
    C69      C        0.61160    0.55880    0.84470    1.000
    C70      C        0.44170    0.55060    0.86820    1.000
    C71      C        0.33460    0.63080    0.89620    1.000
    C72      C        0.71440    0.47320    0.81090    1.000
    C73      C        0.02940    0.86500    0.58160    1.000
    C74      C        0.11080    0.85040    0.62250    1.000
    C75      C        0.20900    0.91800    0.62290    1.000
    C76      C        0.19770    0.98120    0.58330    1.000
    C77      C        0.28430    0.05900    0.57140    1.000
    C78      C        0.27170    0.11100    0.53320    1.000
    C79      C        0.35540    0.19320    0.52160    1.000
    C80      C        0.29980    0.23240    0.48040    1.000
    C81      C        0.17700    0.17580    0.46880    1.000
    C82      C        0.91330    0.80640    0.56880    1.000
    C83      C        0.39250    0.08940    0.60540    1.000
    C84      C        0.28650    0.14820    0.64120    1.000
    C85      C        0.38140    0.18200    0.67160    1.000
    C86      C        0.58170    0.16000    0.66660    1.000
    C87      C        0.68310    0.10140    0.63130    1.000
    C88      C        0.59210    0.06800    0.60030    1.000
    C89      C        0.67720    0.20660    0.69870    1.000
    C90      C        0.88260    0.71880    0.59920    1.000
    C91      C        0.70410    0.72700    0.62270    1.000
    C92      C        0.67750    0.64700    0.65070    1.000
    C93      C        0.82960    0.55880    0.65530    1.000
    C94      C        0.00770    0.55060    0.63180    1.000
    C95      C        0.03460    0.63080    0.60380    1.000
    C96      C        0.81240    0.47320    0.68910    1.000
    N1       N        0.02480    0.05680    0.05880    1.000
    N2       N        0.25910    0.90080    0.99990    1.000
    N3       N        0.91840    0.05680    0.44120    1.000
    N4       N        0.84010    0.90080    0.50010    1.000
    N5       N        0.97520    0.94320    0.94120    1.000
    N6       N        0.74090    0.09920    0.00010    1.000
    N7       N        0.08160    0.94320    0.55880    1.000
    N8       N        0.15990    0.09920    0.49990    1.000
    O1       O        0.42030    0.73380    0.27220    1.000
    O2       O        0.04200    0.81580    0.19410    1.000
    O3       O        0.12990    0.51820    0.20270    1.000
    O4       O        0.38800    0.59000    0.19340    1.000
    O5       O        0.84590    0.73380    0.22780    1.000
    O6       O        0.14220    0.81580    0.30590    1.000
    O7       O        0.35190    0.51820    0.29730    1.000
    O8       O        0.02200    0.59000    0.30660    1.000
    O9       O        0.57970    0.26620    0.72780    1.000
    O10      O        0.95800    0.18420    0.80590    1.000
    O11      O        0.87010    0.48180    0.79730    1.000
    O12      O        0.61200    0.41000    0.80660    1.000
    O13      O        0.15410    0.26620    0.77220    1.000
    O14      O        0.85780    0.18420    0.69410    1.000
    O15      O        0.64810    0.48180    0.70270    1.000
    O16      O        0.97800    0.41000    0.69340    1.000
