# CIF file generated by openbabel 3.1.0, see https://openbabel.org
data_I
_chemical_name_common 'image0'
_cell_length_a 9.6456
_cell_length_b 23.1871
_cell_length_c 8.7113
_cell_angle_alpha 90
_cell_angle_beta 90
_cell_angle_gamma 90
_space_group_name_H-M_alt 'P 1'
_space_group_name_Hall 'P 1'
loop_
    _symmetry_equiv_pos_as_xyz
    x,y,z
loop_
    _atom_site_label
    _atom_site_type_symbol
    _atom_site_fract_x
    _atom_site_fract_y
    _atom_site_fract_z
    _atom_site_occupancy
    Zn1      Zn       0.55845    0.54848    0.22080    1.000
    P1       P        0.56874    0.68551    0.25502    1.000
    H1       H        0.45700    0.70920    0.18700    1.000
    P2       P        0.78244    0.49615    0.44393    1.000
    H2       H        0.78500    0.44660    0.53700    1.000
    O1       O        0.68520    0.68717    0.13870    1.000
    O2       O        0.53140    0.62452    0.30000    1.000
    O3       O        0.59330    0.72143    0.39620    1.000
    O4       O        0.63460    0.50073    0.38500    1.000
    O5       O        0.88490    0.48926    0.31490    1.000
    O6       O        0.81820    0.54663    0.54600    1.000
    Zn2      Zn       0.94155    0.95152    0.22080    1.000
    P3       P        0.93126    0.81449    0.25502    1.000
    H3       H        0.04300    0.79080    0.18700    1.000
    P4       P        0.71756    0.00385    0.44393    1.000
    H4       H        0.71500    0.05340    0.53700    1.000
    O7       O        0.81480    0.81283    0.13870    1.000
    O8       O        0.96860    0.87548    0.30000    1.000
    O9       O        0.90670    0.77857    0.39620    1.000
    O10      O        0.86540    0.99927    0.38500    1.000
    O11      O        0.61510    0.01074    0.31490    1.000
    O12      O        0.68180    0.95337    0.54600    1.000
    Zn3      Zn       0.44155    0.04848    0.27920    1.000
    P5       P        0.43126    0.18551    0.24498    1.000
    H5       H        0.54300    0.20920    0.31300    1.000
    P6       P        0.21756    0.99615    0.05607    1.000
    H6       H        0.21500    0.94660    0.96300    1.000
    O13      O        0.31480    0.18717    0.36130    1.000
    O14      O        0.46860    0.12452    0.20000    1.000
    O15      O        0.40670    0.22143    0.10380    1.000
    O16      O        0.36540    0.00073    0.11500    1.000
    O17      O        0.11510    0.98926    0.18510    1.000
    O18      O        0.18180    0.04663    0.95400    1.000
    Zn4      Zn       0.05845    0.45152    0.27920    1.000
    P7       P        0.06874    0.31449    0.24498    1.000
    H7       H        0.95700    0.29080    0.31300    1.000
    P8       P        0.28244    0.50385    0.05607    1.000
    H8       H        0.28500    0.55340    0.96300    1.000
    O19      O        0.18520    0.31283    0.36130    1.000
    O20      O        0.03140    0.37548    0.20000    1.000
    O21      O        0.09330    0.27857    0.10380    1.000
    O22      O        0.13460    0.49927    0.11500    1.000
    O23      O        0.38490    0.51074    0.18510    1.000
    O24      O        0.31820    0.45337    0.95400    1.000
    Zn5      Zn       0.44155    0.45152    0.77920    1.000
    P9       P        0.43126    0.31449    0.74498    1.000
    H9       H        0.54300    0.29080    0.81300    1.000
    P10      P        0.21756    0.50385    0.55607    1.000
    H10      H        0.21500    0.55340    0.46300    1.000
    O25      O        0.31480    0.31283    0.86130    1.000
    O26      O        0.46860    0.37548    0.70000    1.000
    O27      O        0.40670    0.27857    0.60380    1.000
    O28      O        0.36540    0.49927    0.61500    1.000
    O29      O        0.11510    0.51074    0.68510    1.000
    O30      O        0.18180    0.45337    0.45400    1.000
    Zn6      Zn       0.05845    0.04848    0.77920    1.000
    P11      P        0.06874    0.18551    0.74498    1.000
    H11      H        0.95700    0.20920    0.81300    1.000
    P12      P        0.28244    0.99615    0.55607    1.000
    H12      H        0.28500    0.94660    0.46300    1.000
    O31      O        0.18520    0.18717    0.86130    1.000
    O32      O        0.03140    0.12452    0.70000    1.000
    O33      O        0.09330    0.22143    0.60380    1.000
    O34      O        0.13460    0.00073    0.61500    1.000
    O35      O        0.38490    0.98926    0.68510    1.000
    O36      O        0.31820    0.04663    0.45400    1.000
    Zn7      Zn       0.55845    0.95152    0.72080    1.000
    P13      P        0.56874    0.81449    0.75502    1.000
    H13      H        0.45700    0.79080    0.68700    1.000
    P14      P        0.78244    0.00385    0.94393    1.000
    H14      H        0.78500    0.05340    0.03700    1.000
    O37      O        0.68520    0.81283    0.63870    1.000
    O38      O        0.53140    0.87548    0.80000    1.000
    O39      O        0.59330    0.77857    0.89620    1.000
    O40      O        0.63460    0.99927    0.88500    1.000
    O41      O        0.88490    0.01074    0.81490    1.000
    O42      O        0.81820    0.95337    0.04600    1.000
    Zn8      Zn       0.94155    0.54848    0.72080    1.000
    P15      P        0.93126    0.68551    0.75502    1.000
    H15      H        0.04300    0.70920    0.68700    1.000
    P16      P        0.71756    0.49615    0.94393    1.000
    H16      H        0.71500    0.44660    0.03700    1.000
    O43      O        0.81480    0.68717    0.63870    1.000
    O44      O        0.96860    0.62452    0.80000    1.000
    O45      O        0.90670    0.72143    0.89620    1.000
    O46      O        0.86540    0.50073    0.88500    1.000
    O47      O        0.61510    0.48926    0.81490    1.000
    O48      O        0.68180    0.54663    0.04600    1.000
    Zn9      Zn       0.75000    0.75000    0.50939    1.000
    Zn10     Zn       0.25000    0.25000    0.99061    1.000
    Zn11     Zn       0.25000    0.25000    0.49061    1.000
    Zn12     Zn       0.75000    0.75000    0.00939    1.000
