# CIF file generated by openbabel 3.1.0, see https://openbabel.org
data_I
_chemical_name_common 'ITIBOD_clean'
_cell_length_a 11.179
_cell_length_b 11.179
_cell_length_c 17.065
_cell_angle_alpha 81.3643
_cell_angle_beta 81.3643
_cell_angle_gamma 84.9173
_space_group_name_H-M_alt 'P 1'
_space_group_name_Hall 'P 1'
loop_
    _symmetry_equiv_pos_as_xyz
    x,y,z
loop_
    _atom_site_label
    _atom_site_type_symbol
    _atom_site_fract_x
    _atom_site_fract_y
    _atom_site_fract_z
    _atom_site_occupancy
    Cd1      Cd       0.32233    0.22589    0.51800    1.000
    Cd2      Cd       0.06803    0.42945    0.84897    1.000
    Cd3      Cd       0.50728    0.02174    0.11994    1.000
    Cd4      Cd       0.77411    0.67767    0.98200    1.000
    Cd5      Cd       0.57055    0.93197    0.65103    1.000
    Cd6      Cd       0.97826    0.49272    0.38006    1.000
    Cd7      Cd       0.67767    0.77411    0.48200    1.000
    Cd8      Cd       0.93197    0.57055    0.15103    1.000
    Cd9      Cd       0.49272    0.97826    0.88006    1.000
    Cd10     Cd       0.22589    0.32233    0.01800    1.000
    Cd11     Cd       0.42945    0.06803    0.34897    1.000
    Cd12     Cd       0.02174    0.50728    0.61994    1.000
    Cd13     Cd       0.83404    0.16596    0.75000    1.000
    Cd14     Cd       0.16596    0.83404    0.25000    1.000
    H1       H        0.38320    0.48120    0.40280    1.000
    H2       H        0.33480    0.52180    0.48650    1.000
    H3       H        0.54550    0.33150    0.58770    1.000
    H4       H        0.43740    0.42820    0.60280    1.000
    H5       H        0.51880    0.61680    0.09720    1.000
    H6       H        0.47820    0.66520    0.01350    1.000
    H7       H        0.66850    0.45450    0.91230    1.000
    H8       H        0.57180    0.56260    0.89720    1.000
    H9       H        0.61680    0.51880    0.59720    1.000
    H10      H        0.66520    0.47820    0.51350    1.000
    H11      H        0.45450    0.66850    0.41230    1.000
    H12      H        0.56260    0.57180    0.39720    1.000
    H13      H        0.48120    0.38320    0.90280    1.000
    H14      H        0.52180    0.33480    0.98650    1.000
    H15      H        0.33150    0.54550    0.08770    1.000
    H16      H        0.42820    0.43740    0.10280    1.000
    C1       C        0.70400    0.21560    0.08550    1.000
    C2       C        0.77300    0.19620    0.93090    1.000
    C3       C        0.32900    0.18580    0.78280    1.000
    C4       C        0.70580    0.17320    0.00600    1.000
    C5       C        0.40710    0.49510    0.45290    1.000
    C6       C        0.30240    0.21600    0.86670    1.000
    C7       C        0.29040    0.22740    0.70910    1.000
    C8       C        0.87950    0.26710    0.89830    1.000
    C9       C        0.50510    0.40550    0.56400    1.000
    C10      C        0.19820    0.32300    0.67810    1.000
    C11      C        0.78440    0.29600    0.41450    1.000
    C12      C        0.80380    0.22700    0.56910    1.000
    C13      C        0.81420    0.67100    0.71720    1.000
    C14      C        0.82680    0.29420    0.49400    1.000
    C15      C        0.50490    0.59290    0.04710    1.000
    C16      C        0.78400    0.69760    0.63330    1.000
    C17      C        0.77260    0.70960    0.79090    1.000
    C18      C        0.73290    0.12050    0.60170    1.000
    C19      C        0.59450    0.49490    0.93600    1.000
    C20      C        0.67700    0.80180    0.82190    1.000
    C21      C        0.29600    0.78440    0.91450    1.000
    C22      C        0.22700    0.80380    0.06910    1.000
    C23      C        0.67100    0.81420    0.21720    1.000
    C24      C        0.29420    0.82680    0.99400    1.000
    C25      C        0.59290    0.50490    0.54710    1.000
    C26      C        0.69760    0.78400    0.13330    1.000
    C27      C        0.70960    0.77260    0.29090    1.000
    C28      C        0.12050    0.73290    0.10170    1.000
    C29      C        0.49490    0.59450    0.43600    1.000
    C30      C        0.80180    0.67700    0.32190    1.000
    C31      C        0.21560    0.70400    0.58550    1.000
    C32      C        0.19620    0.77300    0.43090    1.000
    C33      C        0.18580    0.32900    0.28280    1.000
    C34      C        0.17320    0.70580    0.50600    1.000
    C35      C        0.49510    0.40710    0.95290    1.000
    C36      C        0.21600    0.30240    0.36670    1.000
    C37      C        0.22740    0.29040    0.20910    1.000
    C38      C        0.26710    0.87950    0.39830    1.000
    C39      C        0.40550    0.50510    0.06400    1.000
    C40      C        0.32300    0.19820    0.17810    1.000
    N1       N        0.35590    0.16330    0.65460    1.000
    N2       N        0.63190    0.08070    0.92350    1.000
    N3       N        0.43040    0.08400    0.69380    1.000
    N4       N        0.45810    0.38150    0.49220    1.000
    N5       N        0.72430    0.13870    0.88070    1.000
    N6       N        0.41600    0.09640    0.77020    1.000
    N7       N        0.61830    0.10070    0.99920    1.000
    N8       N        0.83670    0.64410    0.84540    1.000
    N9       N        0.91930    0.36810    0.57650    1.000
    N10      N        0.91600    0.56960    0.80620    1.000
    N11      N        0.61850    0.54190    0.00780    1.000
    N12      N        0.86130    0.27570    0.61930    1.000
    N13      N        0.90360    0.58400    0.72980    1.000
    N14      N        0.89930    0.38170    0.50080    1.000
    N15      N        0.64410    0.83670    0.34540    1.000
    N16      N        0.36810    0.91930    0.07650    1.000
    N17      N        0.56960    0.91600    0.30620    1.000
    N18      N        0.54190    0.61850    0.50780    1.000
    N19      N        0.27570    0.86130    0.11930    1.000
    N20      N        0.58400    0.90360    0.22980    1.000
    N21      N        0.38170    0.89930    0.00080    1.000
    N22      N        0.16330    0.35590    0.15460    1.000
    N23      N        0.08070    0.63190    0.42350    1.000
    N24      N        0.08400    0.43040    0.19380    1.000
    N25      N        0.38150    0.45810    0.99220    1.000
    N26      N        0.13870    0.72430    0.38070    1.000
    N27      N        0.09640    0.41600    0.27020    1.000
    N28      N        0.10070    0.61830    0.49920    1.000
    O1       O        0.63720    0.16060    0.14320    1.000
    O2       O        0.22630    0.30030    0.88420    1.000
    O3       O        0.12110    0.37850    0.72310    1.000
    O4       O        0.91080    0.28300    0.82340    1.000
    O5       O        0.36150    0.15530    0.91710    1.000
    O6       O        0.76140    0.30440    0.08930    1.000
    O7       O        0.10371    0.48611    0.96623    1.000
    O8       O        0.20120    0.34560    0.60290    1.000
    O9       O        0.93600    0.31140    0.94400    1.000
    O10      O        0.83940    0.36280    0.35680    1.000
    O11      O        0.69970    0.77370    0.61580    1.000
    O12      O        0.62150    0.87890    0.77690    1.000
    O13      O        0.71700    0.08920    0.67660    1.000
    O14      O        0.84470    0.63850    0.58290    1.000
    O15      O        0.69560    0.23860    0.41070    1.000
    O16      O        0.51389    0.89629    0.53377    1.000
    O17      O        0.65440    0.79880    0.89710    1.000
    O18      O        0.68860    0.06400    0.55600    1.000
    O19      O        0.36280    0.83940    0.85680    1.000
    O20      O        0.77370    0.69970    0.11580    1.000
    O21      O        0.87890    0.62150    0.27690    1.000
    O22      O        0.08920    0.71700    0.17660    1.000
    O23      O        0.63850    0.84470    0.08290    1.000
    O24      O        0.23860    0.69560    0.91070    1.000
    O25      O        0.89629    0.51389    0.03377    1.000
    O26      O        0.79880    0.65440    0.39710    1.000
    O27      O        0.06400    0.68860    0.05600    1.000
    O28      O        0.16060    0.63720    0.64320    1.000
    O29      O        0.30030    0.22630    0.38420    1.000
    O30      O        0.37850    0.12110    0.22310    1.000
    O31      O        0.28300    0.91080    0.32340    1.000
    O32      O        0.15530    0.36150    0.41710    1.000
    O33      O        0.30440    0.76140    0.58930    1.000
    O34      O        0.48611    0.10371    0.46623    1.000
    O35      O        0.34560    0.20120    0.10290    1.000
    O36      O        0.31140    0.93600    0.44400    1.000
