# CIF file generated by openbabel 3.1.0, see https://openbabel.org
data_I
_chemical_name_common 'ja500330a_si_009'
_cell_length_a 25.9146
_cell_length_b 22.8097
_cell_length_c 19.7065
_cell_angle_alpha 90
_cell_angle_beta 90
_cell_angle_gamma 90
_space_group_name_H-M_alt 'P 1'
_space_group_name_Hall 'P 1'
loop_
    _symmetry_equiv_pos_as_xyz
    x,y,z
loop_
    _atom_site_label
    _atom_site_type_symbol
    _atom_site_fract_x
    _atom_site_fract_y
    _atom_site_fract_z
    _atom_site_occupancy
    C1       C        0.22135    0.20638    0.20841    1.000
    C2       C        0.17837    0.22751    0.17187    1.000
    C3       C        0.14613    0.18989    0.13595    1.000
    X4       C        0.15619    0.12958    0.13274    1.000
    C5       C        0.20100    0.10796    0.16415    1.000
    C6       C        0.23350    0.14603    0.20133    1.000
    C7       C        0.25463    0.25181    0.24825    1.000
    C8       C        0.27900    0.28870    0.19151    1.000
    C9       C        0.29648    0.22520    0.29507    1.000
    C10      C        0.22178    0.28953    0.29698    1.000
    C11      C        0.26330    0.34659    0.17605    1.000
    C12      C        0.29482    0.38255    0.13678    1.000
    X13      C        0.34071    0.35997    0.11047    1.000
    C14      C        0.35045    0.29965    0.11375    1.000
    C15      C        0.31884    0.26385    0.15248    1.000
    C16      C        0.34748    0.24812    0.29951    1.000
    C17      C        0.38501    0.22120    0.34014    1.000
    X18      C        0.37160    0.17305    0.38000    1.000
    C19      C        0.31951    0.15590    0.38359    1.000
    C20      C        0.28249    0.18174    0.34205    1.000
    C21      C        0.17257    0.27128    0.31797    1.000
    C22      C        0.14063    0.30923    0.35325    1.000
    X23      C        0.15719    0.36604    0.37039    1.000
    C24      C        0.20879    0.38133    0.35959    1.000
    C25      C        0.24131    0.34253    0.32467    1.000
    H26      H        0.16877    0.27370    0.17279    1.000
    H27      H        0.11243    0.20810    0.11112    1.000
    H28      H        0.20999    0.06164    0.16172    1.000
    H29      H        0.26790    0.12792    0.22414    1.000
    H30      H        0.22863    0.36547    0.19730    1.000
    H31      H        0.28545    0.42862    0.13149    1.000
    H32      H        0.38451    0.28098    0.09026    1.000
    H33      H        0.32899    0.21804    0.15815    1.000
    H34      H        0.35922    0.28608    0.27057    1.000
    H35      H        0.42473    0.23578    0.33738    1.000
    H36      H        0.30804    0.11945    0.41550    1.000
    H37      H        0.24308    0.16613    0.34471    1.000
    H38      H        0.15766    0.22834    0.30542    1.000
    H39      H        0.10200    0.29444    0.36537    1.000
    H40      H        0.22317    0.42385    0.37508    1.000
    H41      H        0.28070    0.35582    0.31475    1.000
    C42      C        0.72007    0.70475    0.19274    1.000
    C43      C        0.68092    0.72734    0.15075    1.000
    C44      C        0.64886    0.68942    0.11566    1.000
    X45      C        0.65751    0.62893    0.11874    1.000
    C46      C        0.70265    0.60726    0.14807    1.000
    C47      C        0.73466    0.64544    0.18386    1.000
    C48      C        0.74354    0.74545    0.24662    1.000
    C49      C        0.77553    0.79007    0.20369    1.000
    C50      C        0.77766    0.71188    0.29789    1.000
    C51      C        0.70056    0.77272    0.29126    1.000
    C52      C        0.76301    0.85015    0.19506    1.000
    C53      C        0.79515    0.88767    0.15667    1.000
    X54      C        0.83996    0.86580    0.12545    1.000
    C55      C        0.85017    0.80556    0.12977    1.000
    C56      C        0.81828    0.76843    0.16702    1.000
    C57      C        0.82700    0.73218    0.31594    1.000
    C58      C        0.85994    0.69719    0.35378    1.000
    X59      C        0.84431    0.64144    0.37625    1.000
    C60      C        0.79266    0.62491    0.36821    1.000
    C61      C        0.75916    0.66083    0.33097    1.000
    C62      C        0.64975    0.74901    0.29555    1.000
    C63      C        0.61126    0.77648    0.33410    1.000
    X64      C        0.62351    0.82600    0.37221    1.000
    C65      C        0.67525    0.84442    0.37595    1.000
    C66      C        0.71320    0.81807    0.33640    1.000
    H67      H        0.67142    0.77358    0.15166    1.000
    H68      H        0.61543    0.70695    0.08958    1.000
    H69      H        0.71119    0.56078    0.14724    1.000
    H70      H        0.76884    0.62748    0.20738    1.000
    H71      H        0.72876    0.86860    0.21786    1.000
    H72      H        0.78608    0.93394    0.15356    1.000
    H73      H        0.88393    0.78714    0.10529    1.000
    H74      H        0.82818    0.72235    0.16935    1.000
    H75      H        0.84127    0.77431    0.29921    1.000
    H76      H        0.89865    0.71316    0.36320    1.000
    H77      H        0.77895    0.58329    0.38754    1.000
    H78      H        0.71978    0.64637    0.32336    1.000
    H79      H        0.63889    0.70979    0.26837    1.000
    H80      H        0.57184    0.76088    0.33147    1.000
    H81      H        0.68581    0.88190    0.40678    1.000
    H82      H        0.75233    0.83458    0.33923    1.000
    C83      C        0.70327    0.22654    0.69687    1.000
    C84      C        0.65247    0.24982    0.69078    1.000
    C85      C        0.61507    0.22217    0.65065    1.000
    X86      C        0.62841    0.17275    0.61294    1.000
    C87      C        0.68040    0.15493    0.61086    1.000
    C88      C        0.71727    0.18153    0.65193    1.000
    C89      C        0.74500    0.25426    0.74304    1.000
    C90      C        0.77897    0.28930    0.69306    1.000
    C91      C        0.77715    0.20998    0.78614    1.000
    C92      C        0.72017    0.29368    0.79705    1.000
    C93      C        0.76001    0.34066    0.66104    1.000
    C94      C        0.79312    0.37737    0.62427    1.000
    X95      C        0.84482    0.36138    0.61568    1.000
    C96      C        0.86097    0.30554    0.63727    1.000
    C97      C        0.82845    0.26978    0.67473    1.000
    C98      C        0.81931    0.23208    0.82360    1.000
    C99      C        0.85061    0.19545    0.86232    1.000
    X100     C        0.84047    0.13521    0.86715    1.000
    C101     C        0.79632    0.11287    0.83478    1.000
    C102     C        0.76470    0.14992    0.79507    1.000
    C103     C        0.68052    0.26993    0.83729    1.000
    C104     C        0.64842    0.30675    0.87379    1.000
    X105     C        0.65738    0.36723    0.87373    1.000
    C106     C        0.70267    0.38971    0.84570    1.000
    C107     C        0.73476    0.35266    0.80852    1.000
    H108     H        0.64075    0.28876    0.71793    1.000
    H109     H        0.57548    0.23733    0.65211    1.000
    H110     H        0.69189    0.11755    0.58043    1.000
    H111     H        0.75657    0.16545    0.65048    1.000
    H112     H        0.72052    0.35457    0.66894    1.000
    H113     H        0.77906    0.41909    0.60568    1.000
    H114     H        0.89977    0.29005    0.62742    1.000
    H115     H        0.84307    0.22762    0.69085    1.000
    H116     H        0.82906    0.27820    0.82111    1.000
    H117     H        0.88391    0.21423    0.88749    1.000
    H118     H        0.78738    0.06657    0.83805    1.000
    H119     H        0.73084    0.13118    0.77158    1.000
    H120     H        0.67100    0.22375    0.83439    1.000
    H121     H        0.61480    0.28847    0.89873    1.000
    H122     H        0.71134    0.43610    0.84866    1.000
    H123     H        0.76914    0.37124    0.78618    1.000
    C124     C        0.22303    0.71056    0.69889    1.000
    C125     C        0.17398    0.72984    0.67831    1.000
    C126     C        0.14160    0.69296    0.64219    1.000
    X127     C        0.15759    0.63630    0.62364    1.000
    C128     C        0.20909    0.62020    0.63395    1.000
    C129     C        0.24203    0.65791    0.66980    1.000
    C130     C        0.25616    0.74678    0.74889    1.000
    C131     C        0.29906    0.77317    0.70348    1.000
    C132     C        0.27941    0.70863    0.80537    1.000
    C133     C        0.22310    0.79234    0.78885    1.000
    C134     C        0.28613    0.81681    0.65621    1.000
    C135     C        0.32399    0.84254    0.61597    1.000
    X136     C        0.37593    0.82517    0.62113    1.000
    C137     C        0.38854    0.77710    0.66151    1.000
    C138     C        0.35015    0.75018    0.70077    1.000
    C139     C        0.31854    0.73269    0.84631    1.000
    C140     C        0.34995    0.69603    0.88426    1.000
    X141     C        0.34059    0.63558    0.88491    1.000
    C142     C        0.29514    0.61342    0.85688    1.000
    C143     C        0.26384    0.65025    0.81835    1.000
    C144     C        0.17987    0.77135    0.82501    1.000
    C145     C        0.14716    0.80917    0.85988    1.000
    X146     C        0.15700    0.86954    0.86241    1.000
    C147     C        0.20213    0.89102    0.83166    1.000
    C148     C        0.23508    0.85276    0.79548    1.000
    H149     H        0.15947    0.77274    0.69179    1.000
    H150     H        0.10309    0.70843    0.63052    1.000
    H151     H        0.22305    0.57781    0.61738    1.000
    H152     H        0.28129    0.64394    0.67938    1.000
    H153     H        0.24683    0.83259    0.65230    1.000
    H154     H        0.31321    0.87896    0.58361    1.000
    H155     H        0.42817    0.76238    0.66542    1.000
    H156     H        0.36129    0.71208    0.72985    1.000
    H157     H        0.32855    0.77868    0.84246    1.000
    H158     H        0.38364    0.71423    0.90911    1.000
    H159     H        0.28602    0.56715    0.86024    1.000
    H160     H        0.22954    0.63172    0.79574    1.000
    H161     H        0.17032    0.72514    0.82427    1.000
    H162     H        0.11326    0.79106    0.88435    1.000
    H163     H        0.21099    0.93738    0.83372    1.000
    H164     H        0.26961    0.87082    0.77297    1.000
    C165     C        0.22152    0.20699    0.78513    1.000
    C166     C        0.23360    0.14661    0.79204    1.000
    C167     C        0.20120    0.10858    0.82939    1.000
    X168     C        0.15657    0.13029    0.86117    1.000
    C169     C        0.14662    0.19063    0.85818    1.000
    C170     C        0.17875    0.22819    0.82203    1.000
    C171     C        0.25468    0.25237    0.74509    1.000
    C172     C        0.27919    0.28927    0.80170    1.000
    C173     C        0.22171    0.29004    0.69648    1.000
    C174     C        0.29639    0.22568    0.69813    1.000
    C175     C        0.31893    0.26428    0.84080    1.000
    C176     C        0.35045    0.29992    0.87984    1.000
    X177     C        0.34074    0.36024    0.88332    1.000
    C178     C        0.29501    0.38299    0.85676    1.000
    C179     C        0.26357    0.34718    0.81719    1.000
    C180     C        0.24121    0.34294    0.66852    1.000
    C181     C        0.20867    0.38162    0.63347    1.000
    X182     C        0.15705    0.36631    0.62286    1.000
    C183     C        0.14046    0.30961    0.64040    1.000
    C184     C        0.17243    0.27177    0.67580    1.000
    C185     C        0.28220    0.18233    0.65112    1.000
    C186     C        0.31908    0.15637    0.60949    1.000
    X187     C        0.37123    0.17328    0.61302    1.000
    C188     C        0.38483    0.22136    0.65289    1.000
    C189     C        0.34745    0.24839    0.69364    1.000
    H190     H        0.26787    0.12844    0.76895    1.000
    H191     H        0.21007    0.06223    0.83159    1.000
    H192     H        0.11305    0.20889    0.88327    1.000
    H193     H        0.16921    0.27441    0.82120    1.000
    H194     H        0.32903    0.21846    0.83506    1.000
    H195     H        0.38441    0.28114    0.90345    1.000
    H196     H        0.28569    0.42906    0.86213    1.000
    H197     H        0.22899    0.36618    0.79584    1.000
    H198     H        0.28063    0.35622    0.67826    1.000
    H199     H        0.22305    0.42406    0.61770    1.000
    H200     H        0.10181    0.29479    0.62846    1.000
    H201     H        0.15750    0.22890    0.68860    1.000
    H202     H        0.24274    0.16688    0.64854    1.000
    H203     H        0.30745    0.11998    0.57757    1.000
    H204     H        0.42461    0.23575    0.65560    1.000
    H205     H        0.35936    0.28626    0.72263    1.000
    C206     C        0.71998    0.70406    0.80051    1.000
    C207     C        0.73444    0.64471    0.80935    1.000
    C208     C        0.70248    0.60669    0.84545    1.000
    X209     C        0.65753    0.62856    0.87507    1.000
    C210     C        0.64901    0.68906    0.87806    1.000
    C211     C        0.68100    0.72681    0.84266    1.000
    C212     C        0.74351    0.74473    0.74668    1.000
    C213     C        0.77561    0.78914    0.78972    1.000
    C214     C        0.70054    0.77215    0.70214    1.000
    C215     C        0.77757    0.71121    0.69531    1.000
    C216     C        0.81830    0.76727    0.82635    1.000
    C217     C        0.85020    0.80415    0.86390    1.000
    X218     C        0.84011    0.86441    0.86849    1.000
    C219     C        0.79539    0.88650    0.83722    1.000
    C220     C        0.76322    0.84922    0.79858    1.000
    C221     C        0.71322    0.81752    0.65703    1.000
    C222     C        0.67530    0.84388    0.61743    1.000
    X223     C        0.62353    0.82553    0.62115    1.000
    C224     C        0.61124    0.77603    0.65928    1.000
    C225     C        0.64970    0.74852    0.69784    1.000
    C226     C        0.75907    0.66018    0.66218    1.000
    C227     C        0.79254    0.62443    0.62468    1.000
    X228     C        0.84413    0.64112    0.61643    1.000
    C229     C        0.85972    0.69685    0.63898    1.000
    C230     C        0.82683    0.73167    0.67709    1.000
    H231     H        0.76849    0.62661    0.78566    1.000
    H232     H        0.71090    0.56018    0.84630    1.000
    H233     H        0.61571    0.70673    0.90432    1.000
    H234     H        0.67160    0.77309    0.84174    1.000
    H235     H        0.82811    0.72116    0.82381    1.000
    H236     H        0.88387    0.78553    0.88837    1.000
    H237     H        0.78641    0.93279    0.84049    1.000
    H238     H        0.72905    0.86784    0.77576    1.000
    H239     H        0.75236    0.83398    0.65423    1.000
    H240     H        0.68592    0.88133    0.58660    1.000
    H241     H        0.57180    0.76048    0.66192    1.000
    H242     H        0.63879    0.70931    0.72503    1.000
    H243     H        0.71973    0.64565    0.66989    1.000
    H244     H        0.77886    0.58281    0.60531    1.000
    H245     H        0.89838    0.71293    0.62943    1.000
    H246     H        0.84107    0.77379    0.69389    1.000
    C247     C        0.70313    0.22611    0.29641    1.000
    C248     C        0.71695    0.18116    0.34152    1.000
    C249     C        0.67993    0.15473    0.38252    1.000
    X250     C        0.62800    0.17271    0.38023    1.000
    C251     C        0.61483    0.22209    0.34237    1.000
    C252     C        0.65237    0.24957    0.30231    1.000
    C253     C        0.74499    0.25358    0.25024    1.000
    C254     C        0.77901    0.28862    0.30016    1.000
    C255     C        0.72032    0.29304    0.19612    1.000
    C256     C        0.77703    0.20904    0.20732    1.000
    C257     C        0.82858    0.26925    0.31833    1.000
    C258     C        0.86115    0.30517    0.35552    1.000
    X259     C        0.84497    0.36102    0.37704    1.000
    C260     C        0.79321    0.37686    0.36867    1.000
    C261     C        0.76006    0.34001    0.33215    1.000
    C262     C        0.73499    0.35201    0.18473    1.000
    C263     C        0.70283    0.38923    0.14790    1.000
    X264     C        0.65739    0.36693    0.12009    1.000
    C265     C        0.64838    0.30645    0.11978    1.000
    C266     C        0.68057    0.26946    0.15592    1.000
    C267     C        0.76446    0.14897    0.19866    1.000
    C268     C        0.79604    0.11166    0.15919    1.000
    X269     C        0.84026    0.13377    0.12678    1.000
    C270     C        0.85054    0.19399    0.13135    1.000
    C271     C        0.81926    0.23087    0.16980    1.000
    H272     H        0.75621    0.16496    0.34313    1.000
    H273     H        0.69125    0.11735    0.41305    1.000
    H274     H        0.57527    0.23735    0.34075    1.000
    H275     H        0.64079    0.28852    0.27507    1.000
    H276     H        0.84322    0.22709    0.30226    1.000
    H277     H        0.90001    0.28979    0.36521    1.000
    H278     H        0.77912    0.41858    0.38724    1.000
    H279     H        0.72054    0.35385    0.32437    1.000
    H280     H        0.76946    0.37047    0.20699    1.000
    H281     H        0.71156    0.43562    0.14506    1.000
    H282     H        0.61466    0.28831    0.09494    1.000
    H283     H        0.67098    0.22329    0.15872    1.000
    H284     H        0.73054    0.13041    0.22220    1.000
    H285     H        0.78701    0.06538    0.15610    1.000
    H286     H        0.88392    0.21257    0.10615    1.000
    H287     H        0.82912    0.27697    0.17206    1.000
    C288     C        0.22311    0.71107    0.29458    1.000
    C289     C        0.24215    0.65834    0.32345    1.000
    C290     C        0.20922    0.62048    0.35912    1.000
    X291     C        0.15772    0.63651    0.36949    1.000
    C292     C        0.14172    0.69324    0.35128    1.000
    C293     C        0.17408    0.73028    0.31534    1.000
    C294     C        0.25613    0.74735    0.24451    1.000
    C295     C        0.29914    0.77368    0.28983    1.000
    C296     C        0.22298    0.79295    0.20468    1.000
    C297     C        0.27929    0.70920    0.18793    1.000
    C298     C        0.35016    0.75050    0.29255    1.000
    C299     C        0.38866    0.77728    0.33178    1.000
    X300     C        0.37620    0.82538    0.37219    1.000
    C301     C        0.32431    0.84297    0.37733    1.000
    C302     C        0.28636    0.81739    0.33708    1.000
    C303     C        0.23497    0.85336    0.19795    1.000
    C304     C        0.20194    0.89163    0.16186    1.000
    X305     C        0.15670    0.87018    0.13134    1.000
    C306     C        0.14682    0.80983    0.13403    1.000
    C307     C        0.17962    0.77199    0.16876    1.000
    C308     C        0.26363    0.65085    0.17494    1.000
    C309     C        0.29498    0.61388    0.13667    1.000
    X310     C        0.34058    0.63588    0.10888    1.000
    C311     C        0.35001    0.69633    0.10940    1.000
    C312     C        0.31853    0.73313    0.14708    1.000
    H313     H        0.28140    0.64440    0.31376    1.000
    H314     H        0.22320    0.57802    0.37546    1.000
    H315     H        0.10321    0.70865    0.36304    1.000
    H316     H        0.15956    0.77322    0.30205    1.000
    H317     H        0.36118    0.71233    0.26350    1.000
    H318     H        0.42823    0.76239    0.32787    1.000
    H319     H        0.31365    0.87943    0.40969    1.000
    H320     H        0.24711    0.83332    0.34102    1.000
    H321     H        0.26957    0.87140    0.22028    1.000
    H322     H        0.21087    0.93797    0.15964    1.000
    H323     H        0.11285    0.79173    0.10972    1.000
    H324     H        0.17004    0.72578    0.16956    1.000
    H325     H        0.22923    0.63244    0.19745    1.000
    H326     H        0.28579    0.56763    0.13337    1.000
    H327     H        0.38380    0.71442    0.08467    1.000
    H328     H        0.32861    0.77910    0.15088    1.000
    O329     O        0.06915    0.10446    0.11862    1.000
    O330     O        0.12841    0.05174    0.05680    1.000
    X331     C        0.11612    0.09160    0.10156    1.000
    O332     O        0.92720    0.89076    0.11167    1.000
    O333     O        0.86795    0.94618    0.05317    1.000
    X334     C        0.88022    0.90404    0.09499    1.000
    O335     O        0.06945    0.89526    0.11799    1.000
    O336     O        0.12858    0.94848    0.05653    1.000
    X337     C        0.11641    0.90832    0.10091    1.000
    O338     O        0.92730    0.10896    0.11215    1.000
    O339     O        0.86799    0.05383    0.05342    1.000
    X340     C        0.88034    0.09575    0.09556    1.000
    Zr341    Zr       0.99833    0.07276    0.08163    1.000
    O342     O        0.99633    0.06339    0.18828    1.000
    O343     O        0.00212    0.16530    0.08801    1.000
    Zr344    Zr       0.99832    0.92716    0.08167    1.000
    O345     O        0.99341    0.93276    0.18879    1.000
    O346     O        0.00261    0.83459    0.08664    1.000
    O347     O        0.04558    0.00002    0.09484    1.000
    O348     O        0.95209    0.00000    0.09398    1.000
    O349     O        0.92766    0.11162    0.88365    1.000
    O350     O        0.86815    0.05411    0.93883    1.000
    X351     C        0.88059    0.09726    0.89844    1.000
    O352     O        0.06971    0.89416    0.87613    1.000
    O353     O        0.12881    0.94853    0.93616    1.000
    X354     C        0.11667    0.90772    0.89260    1.000
    O355     O        0.92750    0.88819    0.88416    1.000
    O356     O        0.86804    0.94591    0.93916    1.000
    X357     C        0.88041    0.90258    0.89904    1.000
    O358     O        0.06948    0.10577    0.87579    1.000
    O359     O        0.12869    0.05169    0.93595    1.000
    X360     C        0.11644    0.09229    0.89214    1.000
    Zr361    Zr       0.99828    0.07259    0.91025    1.000
    O362     O        0.99271    0.06307    0.80353    1.000
    O363     O        0.00053    0.16453    0.89720    1.000
    Zr364    Zr       0.99829    0.92737    0.91022    1.000
    O365     O        0.99272    0.93700    0.80352    1.000
    O366     O        0.00054    0.83549    0.89667    1.000
    Zr367    Zr       0.07720    0.00003    0.99612    1.000
    Zr368    Zr       0.91968    0.00000    0.99608    1.000
    O369     O        0.95180    0.99997    0.89796    1.000
    O370     O        0.04577    0.99999    0.89700    1.000
    O371     O        0.95252    0.08468    0.99602    1.000
    O372     O        0.04314    0.91609    0.99604    1.000
    O373     O        0.04317    0.08392    0.99606    1.000
    O374     O        0.95255    0.91529    0.99602    1.000
    H375     H        0.92832    0.99996    0.13338    1.000
    H376     H        0.06517    0.88061    0.99647    1.000
    H377     H        0.92743    0.99993    0.85917    1.000
    H378     H        0.06521    0.11938    0.99656    1.000
    H379     H        0.97976    0.81886    0.05078    1.000
    H380     H        0.00599    0.81806    0.94198    1.000
    H381     H        0.02750    0.94663    0.78603    1.000
    H382     H        0.02735    0.05275    0.78608    1.000
    H383     H        0.00551    0.18180    0.94268    1.000
    H384     H        0.97993    0.18123    0.05155    1.000
    H385     H        0.99542    0.10370    0.20698    1.000
    H386     H        0.02466    0.95335    0.20514    1.000
    O387     O        0.07168    0.60735    0.61527    1.000
    O388     O        0.13091    0.55504    0.55329    1.000
    X389     C        0.11842    0.59589    0.59641    1.000
    O390     O        0.93097    0.38914    0.60546    1.000
    O391     O        0.87120    0.44638    0.55093    1.000
    X392     C        0.88405    0.40210    0.58911    1.000
    O393     O        0.07154    0.39642    0.61548    1.000
    O394     O        0.13084    0.44833    0.55321    1.000
    X395     C        0.11824    0.40749    0.59633    1.000
    O396     O        0.93065    0.61444    0.60538    1.000
    O397     O        0.87106    0.55682    0.55100    1.000
    X398     C        0.88373    0.60111    0.58924    1.000
    Zr399    Zr       0.00075    0.57385    0.58242    1.000
    O400     O        0.99446    0.56389    0.68897    1.000
    O401     O        0.00428    0.66549    0.59741    1.000
    Zr402    Zr       0.00080    0.43002    0.58255    1.000
    O403     O        0.99450    0.44036    0.68905    1.000
    O404     O        0.00425    0.33843    0.59796    1.000
    O405     O        0.04869    0.50194    0.59581    1.000
    O406     O        0.95378    0.50190    0.59470    1.000
    O407     O        0.93083    0.61468    0.38736    1.000
    O408     O        0.87114    0.55688    0.44130    1.000
    X409     C        0.88387    0.60129    0.40329    1.000
    O410     O        0.07169    0.39626    0.37738    1.000
    O411     O        0.13091    0.44826    0.43968    1.000
    X412     C        0.11837    0.40734    0.39664    1.000
    O413     O        0.93111    0.38888    0.38726    1.000
    O414     O        0.87127    0.44627    0.44145    1.000
    X415     C        0.88417    0.40188    0.40347    1.000
    O416     O        0.07182    0.60739    0.37747    1.000
    O417     O        0.13099    0.55505    0.43952    1.000
    X418     C        0.11854    0.59595    0.39644    1.000
    Zr419    Zr       0.00085    0.57377    0.41001    1.000
    O420     O        0.99465    0.56344    0.30350    1.000
    O421     O        0.00427    0.66529    0.39412    1.000
    Zr422    Zr       0.00089    0.42995    0.41004    1.000
    O423     O        0.99470    0.44031    0.30353    1.000
    O424     O        0.00432    0.33840    0.39438    1.000
    Zr425    Zr       0.07933    0.50182    0.49635    1.000
    Zr426    Zr       0.92248    0.50177    0.49618    1.000
    O427     O        0.95386    0.50182    0.39771    1.000
    O428     O        0.04882    0.50186    0.39680    1.000
    O429     O        0.95596    0.58607    0.49618    1.000
    O430     O        0.04471    0.41816    0.49635    1.000
    O431     O        0.04474    0.58556    0.49626    1.000
    O432     O        0.95610    0.41761    0.49626    1.000
    H433     H        0.92888    0.50187    0.63290    1.000
    H434     H        0.06518    0.38150    0.49642    1.000
    H435     H        0.92895    0.50177    0.35951    1.000
    H436     H        0.06531    0.62215    0.49632    1.000
    H437     H        0.99875    0.32006    0.55312    1.000
    H438     H        0.99957    0.31996    0.43933    1.000
    H439     H        0.02979    0.44768    0.28560    1.000
    H440     H        0.02976    0.55625    0.28556    1.000
    H441     H        0.99970    0.68380    0.43906    1.000
    H442     H        0.99783    0.68372    0.55272    1.000
    H443     H        0.02948    0.55613    0.70693    1.000
    H444     H        0.02953    0.44793    0.70703    1.000
    O445     O        0.40664    0.91990    0.37691    1.000
    O446     O        0.45115    0.85165    0.43983    1.000
    X447     C        0.41532    0.86689    0.39663    1.000
    O448     O        0.59905    0.07761    0.38680    1.000
    O449     O        0.55004    0.14659    0.44225    1.000
    X450     C        0.58898    0.13085    0.40421    1.000
    O451     O        0.59242    0.92024    0.37619    1.000
    O452     O        0.54849    0.85197    0.43987    1.000
    X453     C        0.58414    0.86730    0.39640    1.000
    O454     O        0.39976    0.07763    0.38787    1.000
    O455     O        0.44960    0.14670    0.44182    1.000
    X456     C        0.41036    0.13099    0.40432    1.000
    Zr457    Zr       0.43696    0.99936    0.41055    1.000
    O458     O        0.44651    0.00646    0.30410    1.000
    O459     O        0.35634    0.99540    0.39490    1.000
    Zr460    Zr       0.56264    0.99928    0.41118    1.000
    O461     O        0.55228    0.00287    0.30495    1.000
    O462     O        0.64361    0.99575    0.39839    1.000
    O463     O        0.49984    0.94441    0.39773    1.000
    O464     O        0.49988    0.05331    0.39858    1.000
    O465     O        0.39892    0.07769    0.60462    1.000
    O466     O        0.44943    0.14677    0.55176    1.000
    X467     C        0.40985    0.13109    0.58866    1.000
    O468     O        0.59285    0.91992    0.61663    1.000
    O469     O        0.54816    0.85159    0.55413    1.000
    X470     C        0.58419    0.86690    0.59701    1.000
    O471     O        0.60020    0.07738    0.60485    1.000
    O472     O        0.54992    0.14662    0.55195    1.000
    X473     C        0.58948    0.13080    0.58884    1.000
    O474     O        0.40596    0.91986    0.61607    1.000
    O475     O        0.45106    0.85155    0.55397    1.000
    X476     C        0.41493    0.86681    0.59670    1.000
    Zr477    Zr       0.43654    0.99942    0.58302    1.000
    O478     O        0.44578    0.00701    0.68946    1.000
    O479     O        0.35595    0.99548    0.59900    1.000
    Zr480    Zr       0.56221    0.99937    0.58358    1.000
    O481     O        0.55187    0.00698    0.68983    1.000
    O482     O        0.64255    0.99567    0.60158    1.000
    Zr483    Zr       0.49961    0.90938    0.49709    1.000
    Zr484    Zr       0.49963    0.08912    0.49700    1.000
    O485     O        0.49937    0.05342    0.59551    1.000
    O486     O        0.49935    0.94442    0.59658    1.000
    O487     O        0.42588    0.05013    0.49670    1.000
    O488     O        0.57289    0.94945    0.49736    1.000
    O489     O        0.42631    0.94954    0.49675    1.000
    O490     O        0.57330    0.05007    0.49732    1.000
    H491     H        0.50001    0.08146    0.36022    1.000
    H492     H        0.60540    0.92666    0.49707    1.000
    H493     H        0.49932    0.08192    0.63352    1.000
    H494     H        0.39381    0.92674    0.49659    1.000
    H495     H        0.65902    0.00386    0.44331    1.000
    H496     H        0.65950    0.99609    0.55665    1.000
    H497     H        0.54726    0.96695    0.70827    1.000
    H498     H        0.45128    0.96710    0.70781    1.000
    H499     H        0.33960    0.99873    0.55383    1.000
    H500     H        0.34006    0.00025    0.43991    1.000
    H501     H        0.45497    0.96695    0.28652    1.000
    H502     H        0.58736    0.00513    0.28518    1.000
    O503     O        0.57049    0.60392    0.11452    1.000
    O504     O        0.62828    0.54848    0.05395    1.000
    X505     C        0.61680    0.59021    0.09561    1.000
    O506     O        0.42813    0.38344    0.10283    1.000
    O507     O        0.36963    0.44433    0.05139    1.000
    X508     C        0.38152    0.39874    0.08717    1.000
    O509     O        0.57038    0.39154    0.11477    1.000
    O510     O        0.62824    0.44677    0.05406    1.000
    X511     C        0.61670    0.40522    0.09596    1.000
    O512     O        0.42803    0.61203    0.10235    1.000
    O513     O        0.36954    0.55090    0.05122    1.000
    X514     C        0.38142    0.59669    0.08664    1.000
    Zr515    Zr       0.49876    0.57017    0.08346    1.000
    O516     O        0.49222    0.56004    0.18990    1.000
    O517     O        0.50238    0.66152    0.10057    1.000
    Zr518    Zr       0.49875    0.42518    0.08346    1.000
    O519     O        0.49221    0.43534    0.18991    1.000
    O520     O        0.50240    0.33381    0.10047    1.000
    O521     O        0.54620    0.49767    0.09679    1.000
    O522     O        0.45218    0.49768    0.09594    1.000
    O523     O        0.42803    0.61188    0.89169    1.000
    O524     O        0.36955    0.55083    0.94296    1.000
    X525     C        0.38143    0.59653    0.90741    1.000
    O526     O        0.57037    0.39166    0.87939    1.000
    O527     O        0.62825    0.44681    0.94018    1.000
    X528     C        0.61669    0.40535    0.89817    1.000
    O529     O        0.42814    0.38355    0.89124    1.000
    O530     O        0.36964    0.44437    0.94281    1.000
    X531     C        0.38154    0.39887    0.90690    1.000
    O532     O        0.57050    0.60376    0.87960    1.000
    O533     O        0.62829    0.54837    0.94025    1.000
    X534     C        0.61680    0.59001    0.89848    1.000
    Zr535    Zr       0.49877    0.57015    0.91081    1.000
    O536     O        0.49222    0.56010    0.80435    1.000
    O537     O        0.50243    0.66153    0.89394    1.000
    Zr538    Zr       0.49875    0.42517    0.91084    1.000
    O539     O        0.49221    0.43520    0.80437    1.000
    O540     O        0.50245    0.33376    0.89417    1.000
    Zr541    Zr       0.57640    0.49762    0.99714    1.000
    Zr542    Zr       0.42137    0.49762    0.99714    1.000
    O543     O        0.45220    0.49766    0.89835    1.000
    O544     O        0.54619    0.49765    0.89749    1.000
    O545     O        0.45433    0.58215    0.99712    1.000
    O546     O        0.54261    0.41355    0.99714    1.000
    O547     O        0.54262    0.58172    0.99712    1.000
    O548     O        0.45428    0.41311    0.99714    1.000
    H549     H        0.42702    0.49771    0.13385    1.000
    H550     H        0.56342    0.37712    0.99710    1.000
    H551     H        0.42707    0.49769    0.86040    1.000
    H552     H        0.56336    0.61819    0.99707    1.000
    H553     H        0.49957    0.31506    0.05537    1.000
    H554     H        0.49917    0.31511    0.93927    1.000
    H555     H        0.52732    0.44253    0.78650    1.000
    H556     H        0.52738    0.55317    0.78645    1.000
    H557     H        0.49942    0.68023    0.93905    1.000
    H558     H        0.49977    0.68030    0.05546    1.000
    H559     H        0.52742    0.55335    0.20780    1.000
    H560     H        0.52737    0.44240    0.20779    1.000
