# CIF file generated by openbabel 3.1.0, see https://openbabel.org
data_I
_chemical_name_common 'image0'
_cell_length_a 25.56
_cell_length_b 17.28
_cell_length_c 13.187
_cell_angle_alpha 90
_cell_angle_beta 107.198
_cell_angle_gamma 90
_space_group_name_H-M_alt 'P 1'
_space_group_name_Hall 'P 1'
loop_
    _symmetry_equiv_pos_as_xyz
    x,y,z
loop_
    _atom_site_label
    _atom_site_type_symbol
    _atom_site_fract_x
    _atom_site_fract_y
    _atom_site_fract_z
    _atom_site_occupancy
    C1       C        0.51674    0.78100    0.06690    1.000
    C2       C        0.47338    0.83150    0.03500    1.000
    H1       H        0.44090    0.81620    0.98530    1.000
    C3       C        0.47859    0.90500    0.07750    1.000
    C4       C        0.52740    0.92620    0.15160    1.000
    H2       H        0.53100    0.97560    0.18090    1.000
    C5       C        0.57088    0.87480    0.18260    1.000
    C6       C        0.56617    0.80060    0.14100    1.000
    C7       C        0.61611    0.75050    0.16370    1.000
    C8       C        0.64919    0.75940    0.09820    1.000
    C9       C        0.69664    0.71610    0.11490    1.000
    H3       H        0.71800    0.72180    0.06930    1.000
    C10      C        0.71248    0.66490    0.19810    1.000
    C11      C        0.68051    0.65650    0.26430    1.000
    H4       H        0.69110    0.62260    0.32140    1.000
    C12      C        0.63265    0.69830    0.24650    1.000
    C13      C        0.43109    0.95960    0.04860    1.000
    C14      C        0.62260    0.90080    0.26560    1.000
    C15      C        0.63342    0.81420    0.00550    1.000
    C16      C        0.76502    0.61940    0.21790    1.000
    Mn1      Mn       0.36059    0.06850    0.14081    1.000
    Mn2      Mn       0.32190    0.01464    0.87928    1.000
    N1       N        0.50793    0.70330    0.02210    1.000
    N2       N        0.59877    0.68550    0.31500    1.000
    O1       O        0.53279    0.65020    0.07330    1.000
    O2       O        0.47529    0.69550    0.93510    1.000
    O3       O        0.39707    0.95159    0.95790    1.000
    O4       O        0.42808    0.00755    0.11630    1.000
    O5       O        0.64243    0.96594    0.24740    1.000
    O6       O        0.64124    0.86244    0.34510    1.000
    O7       O        0.65087    0.88232    0.01940    1.000
    O8       O        0.60521    0.78950    0.91980    1.000
    O9       O        0.78873    0.62297    0.14850    1.000
    O10      O        0.78033    0.58320    0.30260    1.000
    O11      O        0.55809    0.71850    0.30550    1.000
    O12      O        0.61540    0.64240    0.38780    1.000
    C17      C        0.01674    0.28100    0.06690    1.000
    C18      C        0.97338    0.33150    0.03500    1.000
    H5       H        0.94090    0.31620    0.98530    1.000
    C19      C        0.97859    0.40500    0.07750    1.000
    C20      C        0.02740    0.42620    0.15160    1.000
    H6       H        0.03100    0.47560    0.18090    1.000
    C21      C        0.07088    0.37480    0.18260    1.000
    C22      C        0.06617    0.30060    0.14100    1.000
    C23      C        0.11611    0.25050    0.16370    1.000
    C24      C        0.14919    0.25940    0.09820    1.000
    C25      C        0.19664    0.21610    0.11490    1.000
    H7       H        0.21800    0.22180    0.06930    1.000
    C26      C        0.21248    0.16490    0.19810    1.000
    C27      C        0.18051    0.15650    0.26430    1.000
    H8       H        0.19110    0.12260    0.32140    1.000
    C28      C        0.13265    0.19830    0.24650    1.000
    C29      C        0.93109    0.45960    0.04860    1.000
    C30      C        0.12260    0.40080    0.26560    1.000
    C31      C        0.13342    0.31420    0.00550    1.000
    C32      C        0.26502    0.11940    0.21790    1.000
    Mn3      Mn       0.86059    0.56850    0.14081    1.000
    Mn4      Mn       0.82190    0.51464    0.87928    1.000
    N3       N        0.00793    0.20330    0.02210    1.000
    N4       N        0.09877    0.18550    0.31500    1.000
    O13      O        0.03279    0.15020    0.07330    1.000
    O14      O        0.97529    0.19550    0.93510    1.000
    O15      O        0.89707    0.45159    0.95790    1.000
    O16      O        0.92808    0.50755    0.11630    1.000
    O17      O        0.14243    0.46594    0.24740    1.000
    O18      O        0.14124    0.36244    0.34510    1.000
    O19      O        0.15087    0.38232    0.01940    1.000
    O20      O        0.10521    0.28950    0.91980    1.000
    O21      O        0.28873    0.12297    0.14850    1.000
    O22      O        0.28033    0.08320    0.30260    1.000
    O23      O        0.05809    0.21850    0.30550    1.000
    O24      O        0.11540    0.14240    0.38780    1.000
    C33      C        0.48326    0.78100    0.43310    1.000
    C34      C        0.52662    0.83150    0.46500    1.000
    H9       H        0.55910    0.81620    0.51470    1.000
    C35      C        0.52141    0.90500    0.42250    1.000
    C36      C        0.47260    0.92620    0.34840    1.000
    H10      H        0.46900    0.97560    0.31910    1.000
    C37      C        0.42912    0.87480    0.31740    1.000
    C38      C        0.43383    0.80060    0.35900    1.000
    C39      C        0.38389    0.75050    0.33630    1.000
    C40      C        0.35081    0.75940    0.40180    1.000
    C41      C        0.30336    0.71610    0.38510    1.000
    H11      H        0.28200    0.72180    0.43070    1.000
    C42      C        0.28752    0.66490    0.30190    1.000
    C43      C        0.31949    0.65650    0.23570    1.000
    H12      H        0.30890    0.62260    0.17860    1.000
    C44      C        0.36735    0.69830    0.25350    1.000
    C45      C        0.56891    0.95960    0.45140    1.000
    C46      C        0.37740    0.90080    0.23440    1.000
    C47      C        0.36658    0.81420    0.49450    1.000
    C48      C        0.23498    0.61940    0.28210    1.000
    Mn5      Mn       0.63941    0.06850    0.35919    1.000
    Mn6      Mn       0.67810    0.01464    0.62072    1.000
    N5       N        0.49207    0.70330    0.47790    1.000
    N6       N        0.40123    0.68550    0.18500    1.000
    O25      O        0.46721    0.65020    0.42670    1.000
    O26      O        0.52471    0.69550    0.56490    1.000
    O27      O        0.60293    0.95159    0.54210    1.000
    O28      O        0.57192    0.00755    0.38370    1.000
    O29      O        0.35757    0.96594    0.25260    1.000
    O30      O        0.35876    0.86244    0.15490    1.000
    O31      O        0.34913    0.88232    0.48060    1.000
    O32      O        0.39479    0.78950    0.58020    1.000
    O33      O        0.21127    0.62297    0.35150    1.000
    O34      O        0.21967    0.58320    0.19740    1.000
    O35      O        0.44191    0.71850    0.19450    1.000
    O36      O        0.38460    0.64240    0.11220    1.000
    C49      C        0.98326    0.28100    0.43310    1.000
    C50      C        0.02662    0.33150    0.46500    1.000
    H13      H        0.05910    0.31620    0.51470    1.000
    C51      C        0.02141    0.40500    0.42250    1.000
    C52      C        0.97260    0.42620    0.34840    1.000
    H14      H        0.96900    0.47560    0.31910    1.000
    C53      C        0.92912    0.37480    0.31740    1.000
    C54      C        0.93383    0.30060    0.35900    1.000
    C55      C        0.88389    0.25050    0.33630    1.000
    C56      C        0.85081    0.25940    0.40180    1.000
    C57      C        0.80336    0.21610    0.38510    1.000
    H15      H        0.78200    0.22180    0.43070    1.000
    C58      C        0.78752    0.16490    0.30190    1.000
    C59      C        0.81949    0.15650    0.23570    1.000
    H16      H        0.80890    0.12260    0.17860    1.000
    C60      C        0.86735    0.19830    0.25350    1.000
    C61      C        0.06891    0.45960    0.45140    1.000
    C62      C        0.87740    0.40080    0.23440    1.000
    C63      C        0.86658    0.31420    0.49450    1.000
    C64      C        0.73498    0.11940    0.28210    1.000
    Mn7      Mn       0.13941    0.56850    0.35919    1.000
    Mn8      Mn       0.17810    0.51464    0.62072    1.000
    N7       N        0.99207    0.20330    0.47790    1.000
    N8       N        0.90123    0.18550    0.18500    1.000
    O37      O        0.96721    0.15020    0.42670    1.000
    O38      O        0.02471    0.19550    0.56490    1.000
    O39      O        0.10293    0.45159    0.54210    1.000
    O40      O        0.07192    0.50755    0.38370    1.000
    O41      O        0.85757    0.46594    0.25260    1.000
    O42      O        0.85876    0.36244    0.15490    1.000
    O43      O        0.84913    0.38232    0.48060    1.000
    O44      O        0.89479    0.28950    0.58020    1.000
    O45      O        0.71127    0.12297    0.35150    1.000
    O46      O        0.71967    0.08320    0.19740    1.000
    O47      O        0.94191    0.21850    0.19450    1.000
    O48      O        0.88460    0.14240    0.11220    1.000
    C65      C        0.48326    0.21900    0.93310    1.000
    C66      C        0.52662    0.16850    0.96500    1.000
    H17      H        0.55910    0.18380    0.01470    1.000
    C67      C        0.52141    0.09500    0.92250    1.000
    C68      C        0.47260    0.07380    0.84840    1.000
    H18      H        0.46900    0.02440    0.81910    1.000
    C69      C        0.42912    0.12520    0.81740    1.000
    C70      C        0.43383    0.19940    0.85900    1.000
    C71      C        0.38389    0.24950    0.83630    1.000
    C72      C        0.35081    0.24060    0.90180    1.000
    C73      C        0.30336    0.28390    0.88510    1.000
    H19      H        0.28200    0.27820    0.93070    1.000
    C74      C        0.28752    0.33510    0.80190    1.000
    C75      C        0.31949    0.34350    0.73570    1.000
    H20      H        0.30890    0.37740    0.67860    1.000
    C76      C        0.36735    0.30170    0.75350    1.000
    C77      C        0.56891    0.04040    0.95140    1.000
    C78      C        0.37740    0.09920    0.73440    1.000
    C79      C        0.36658    0.18580    0.99450    1.000
    C80      C        0.23498    0.38060    0.78210    1.000
    Mn9      Mn       0.63941    0.93150    0.85919    1.000
    Mn10     Mn       0.67810    0.98536    0.12072    1.000
    N9       N        0.49207    0.29670    0.97790    1.000
    N10      N        0.40123    0.31450    0.68500    1.000
    O49      O        0.46721    0.34980    0.92670    1.000
    O50      O        0.52471    0.30450    0.06490    1.000
    O51      O        0.60293    0.04841    0.04210    1.000
    O52      O        0.57192    0.99245    0.88370    1.000
    O53      O        0.35757    0.03406    0.75260    1.000
    O54      O        0.35876    0.13756    0.65490    1.000
    O55      O        0.34913    0.11768    0.98060    1.000
    O56      O        0.39479    0.21050    0.08020    1.000
    O57      O        0.21127    0.37703    0.85150    1.000
    O58      O        0.21967    0.41680    0.69740    1.000
    O59      O        0.44191    0.28150    0.69450    1.000
    O60      O        0.38460    0.35760    0.61220    1.000
    C81      C        0.98326    0.71900    0.93310    1.000
    C82      C        0.02662    0.66850    0.96500    1.000
    H21      H        0.05910    0.68380    0.01470    1.000
    C83      C        0.02141    0.59500    0.92250    1.000
    C84      C        0.97260    0.57380    0.84840    1.000
    H22      H        0.96900    0.52440    0.81910    1.000
    C85      C        0.92912    0.62520    0.81740    1.000
    C86      C        0.93383    0.69940    0.85900    1.000
    C87      C        0.88389    0.74950    0.83630    1.000
    C88      C        0.85081    0.74060    0.90180    1.000
    C89      C        0.80336    0.78390    0.88510    1.000
    H23      H        0.78200    0.77820    0.93070    1.000
    C90      C        0.78752    0.83510    0.80190    1.000
    C91      C        0.81949    0.84350    0.73570    1.000
    H24      H        0.80890    0.87740    0.67860    1.000
    C92      C        0.86735    0.80170    0.75350    1.000
    C93      C        0.06891    0.54040    0.95140    1.000
    C94      C        0.87740    0.59920    0.73440    1.000
    C95      C        0.86658    0.68580    0.99450    1.000
    C96      C        0.73498    0.88060    0.78210    1.000
    Mn11     Mn       0.13941    0.43150    0.85919    1.000
    Mn12     Mn       0.17810    0.48536    0.12072    1.000
    N11      N        0.99207    0.79670    0.97790    1.000
    N12      N        0.90123    0.81450    0.68500    1.000
    O61      O        0.96721    0.84980    0.92670    1.000
    O62      O        0.02471    0.80450    0.06490    1.000
    O63      O        0.10293    0.54841    0.04210    1.000
    O64      O        0.07192    0.49245    0.88370    1.000
    O65      O        0.85757    0.53406    0.75260    1.000
    O66      O        0.85876    0.63756    0.65490    1.000
    O67      O        0.84913    0.61768    0.98060    1.000
    O68      O        0.89479    0.71050    0.08020    1.000
    O69      O        0.71127    0.87703    0.85150    1.000
    O70      O        0.71967    0.91680    0.69740    1.000
    O71      O        0.94191    0.78150    0.69450    1.000
    O72      O        0.88460    0.85760    0.61220    1.000
    C97      C        0.51674    0.21900    0.56690    1.000
    C98      C        0.47338    0.16850    0.53500    1.000
    H25      H        0.44090    0.18380    0.48530    1.000
    C99      C        0.47859    0.09500    0.57750    1.000
    C100     C        0.52740    0.07380    0.65160    1.000
    H26      H        0.53100    0.02440    0.68090    1.000
    C101     C        0.57088    0.12520    0.68260    1.000
    C102     C        0.56617    0.19940    0.64100    1.000
    C103     C        0.61611    0.24950    0.66370    1.000
    C104     C        0.64919    0.24060    0.59820    1.000
    C105     C        0.69664    0.28390    0.61490    1.000
    H27      H        0.71800    0.27820    0.56930    1.000
    C106     C        0.71248    0.33510    0.69810    1.000
    C107     C        0.68051    0.34350    0.76430    1.000
    H28      H        0.69110    0.37740    0.82140    1.000
    C108     C        0.63265    0.30170    0.74650    1.000
    C109     C        0.43109    0.04040    0.54860    1.000
    C110     C        0.62260    0.09920    0.76560    1.000
    C111     C        0.63342    0.18580    0.50550    1.000
    C112     C        0.76502    0.38060    0.71790    1.000
    Mn13     Mn       0.36059    0.93150    0.64081    1.000
    Mn14     Mn       0.32190    0.98536    0.37928    1.000
    N13      N        0.50793    0.29670    0.52210    1.000
    N14      N        0.59877    0.31450    0.81500    1.000
    O73      O        0.53279    0.34980    0.57330    1.000
    O74      O        0.47529    0.30450    0.43510    1.000
    O75      O        0.39707    0.04841    0.45790    1.000
    O76      O        0.42808    0.99245    0.61630    1.000
    O77      O        0.64243    0.03406    0.74740    1.000
    O78      O        0.64124    0.13756    0.84510    1.000
    O79      O        0.65087    0.11768    0.51940    1.000
    O80      O        0.60521    0.21050    0.41980    1.000
    O81      O        0.78873    0.37703    0.64850    1.000
    O82      O        0.78033    0.41680    0.80260    1.000
    O83      O        0.55809    0.28150    0.80550    1.000
    O84      O        0.61540    0.35760    0.88780    1.000
    C113     C        0.01674    0.71900    0.56690    1.000
    C114     C        0.97338    0.66850    0.53500    1.000
    H29      H        0.94090    0.68380    0.48530    1.000
    C115     C        0.97859    0.59500    0.57750    1.000
    C116     C        0.02740    0.57380    0.65160    1.000
    H30      H        0.03100    0.52440    0.68090    1.000
    C117     C        0.07088    0.62520    0.68260    1.000
    C118     C        0.06617    0.69940    0.64100    1.000
    C119     C        0.11611    0.74950    0.66370    1.000
    C120     C        0.14919    0.74060    0.59820    1.000
    C121     C        0.19664    0.78390    0.61490    1.000
    H31      H        0.21800    0.77820    0.56930    1.000
    C122     C        0.21248    0.83510    0.69810    1.000
    C123     C        0.18051    0.84350    0.76430    1.000
    H32      H        0.19110    0.87740    0.82140    1.000
    C124     C        0.13265    0.80170    0.74650    1.000
    C125     C        0.93109    0.54040    0.54860    1.000
    C126     C        0.12260    0.59920    0.76560    1.000
    C127     C        0.13342    0.68580    0.50550    1.000
    C128     C        0.26502    0.88060    0.71790    1.000
    Mn15     Mn       0.86059    0.43150    0.64081    1.000
    Mn16     Mn       0.82190    0.48536    0.37928    1.000
    N15      N        0.00793    0.79670    0.52210    1.000
    N16      N        0.09877    0.81450    0.81500    1.000
    O85      O        0.03279    0.84980    0.57330    1.000
    O86      O        0.97529    0.80450    0.43510    1.000
    O87      O        0.89707    0.54841    0.45790    1.000
    O88      O        0.92808    0.49245    0.61630    1.000
    O89      O        0.14243    0.53406    0.74740    1.000
    O90      O        0.14124    0.63756    0.84510    1.000
    O91      O        0.15087    0.61768    0.51940    1.000
    O92      O        0.10521    0.71050    0.41980    1.000
    O93      O        0.28873    0.87703    0.64850    1.000
    O94      O        0.28033    0.91680    0.80260    1.000
    O95      O        0.05809    0.78150    0.80550    1.000
    O96      O        0.11540    0.85760    0.88780    1.000
