# CIF file generated by openbabel 3.1.0, see https://openbabel.org
data_I
_chemical_name_common 'YERJEL_clean'
_cell_length_a 11.269
_cell_length_b 11.27
_cell_length_c 20.711
_cell_angle_alpha 77.608
_cell_angle_beta 77.603
_cell_angle_gamma 64.727
_space_group_name_H-M_alt 'P 1'
_space_group_name_Hall 'P 1'
loop_
    _symmetry_equiv_pos_as_xyz
    x,y,z
loop_
    _atom_site_label
    _atom_site_type_symbol
    _atom_site_fract_x
    _atom_site_fract_y
    _atom_site_fract_z
    _atom_site_occupancy
    Ni1      Ni       0.63538    0.46531    0.06926    1.000
    Ni2      Ni       0.53470    0.36453    0.43081    1.000
    Ni3      Ni       0.36462    0.53469    0.93074    1.000
    Ni4      Ni       0.46530    0.63547    0.56919    1.000
    H1       H        0.69730    0.68510    0.97710    1.000
    H2       H        0.69870    0.88650    0.97640    1.000
    H3       H        0.56870    0.86010    0.17030    1.000
    H4       H        0.56970    0.65880    0.16540    1.000
    H5       H        0.78040    0.02300    0.99480    1.000
    H6       H        0.77750    0.22580    0.99670    1.000
    H7       H        0.50480    0.28490    0.15060    1.000
    H8       H        0.50110    0.08230    0.15450    1.000
    H9       H        0.33940    0.43110    0.33420    1.000
    H10      H        0.14190    0.42890    0.32940    1.000
    H11      H        0.11450    0.30120    0.52380    1.000
    H12      H        0.31500    0.30390    0.52280    1.000
    H13      H        0.71460    0.49440    0.34960    1.000
    H14      H        0.91670    0.49880    0.34540    1.000
    H15      H        0.77480    0.22260    0.50390    1.000
    H16      H        0.97720    0.22020    0.50520    1.000
    H17      H        0.85030    0.27640    0.25830    1.000
    H18      H        0.03640    0.18500    0.31210    1.000
    H19      H        0.25890    0.23690    0.14000    1.000
    H20      H        0.07590    0.31840    0.08510    1.000
    H21      H        0.27470    0.93970    0.24160    1.000
    H22      H        0.35470    0.73240    0.30410    1.000
    H23      H        0.43720    0.88760    0.43620    1.000
    H24      H        0.36260    0.09290    0.37210    1.000
    H25      H        0.11310    0.56240    0.06350    1.000
    H26      H        0.90650    0.63670    0.12830    1.000
    H27      H        0.06020    0.72570    0.25770    1.000
    H28      H        0.26730    0.64290    0.19660    1.000
    H29      H        0.81550    0.96450    0.18780    1.000
    H30      H        0.72410    0.14940    0.24170    1.000
    H31      H        0.68170    0.92410    0.41490    1.000
    H32      H        0.76320    0.74070    0.36000    1.000
    H33      H        0.30270    0.31490    0.02290    1.000
    H34      H        0.30130    0.11350    0.02360    1.000
    H35      H        0.43130    0.13990    0.82970    1.000
    H36      H        0.43030    0.34120    0.83460    1.000
    H37      H        0.21960    0.97700    0.00520    1.000
    H38      H        0.22250    0.77420    0.00330    1.000
    H39      H        0.49520    0.71510    0.84940    1.000
    H40      H        0.49890    0.91770    0.84550    1.000
    H41      H        0.66060    0.56890    0.66580    1.000
    H42      H        0.85810    0.57110    0.67060    1.000
    H43      H        0.88550    0.69880    0.47620    1.000
    H44      H        0.68500    0.69610    0.47720    1.000
    H45      H        0.28540    0.50560    0.65040    1.000
    H46      H        0.08330    0.50120    0.65460    1.000
    H47      H        0.22520    0.77740    0.49610    1.000
    H48      H        0.02280    0.77980    0.49480    1.000
    H49      H        0.14970    0.72360    0.74170    1.000
    H50      H        0.96360    0.81500    0.68790    1.000
    H51      H        0.74110    0.76310    0.86000    1.000
    H52      H        0.92410    0.68160    0.91490    1.000
    H53      H        0.72530    0.06030    0.75840    1.000
    H54      H        0.64530    0.26760    0.69590    1.000
    H55      H        0.56280    0.11240    0.56380    1.000
    H56      H        0.63740    0.90710    0.62790    1.000
    H57      H        0.88690    0.43760    0.93650    1.000
    H58      H        0.09350    0.36330    0.87170    1.000
    H59      H        0.93980    0.27430    0.74230    1.000
    H60      H        0.73270    0.35710    0.80340    1.000
    H61      H        0.18450    0.03550    0.81220    1.000
    H62      H        0.27590    0.85060    0.75830    1.000
    H63      H        0.31830    0.07590    0.58510    1.000
    H64      H        0.23680    0.25930    0.64000    1.000
    C1       C        0.66990    0.72100    0.01690    1.000
    C2       C        0.67160    0.84230    0.01620    1.000
    C3       C        0.63380    0.89870    0.07330    1.000
    C4       C        0.59520    0.82700    0.12980    1.000
    C5       C        0.59590    0.70550    0.12630    1.000
    C6       C        0.63690    0.02930    0.07380    1.000
    C7       C        0.72220    0.07490    0.02680    1.000
    C8       C        0.71950    0.19740    0.02830    1.000
    C9       C        0.56030    0.23180    0.11850    1.000
    C10      C        0.55710    0.11000    0.12100    1.000
    C11      C        0.29340    0.40410    0.37330    1.000
    C12      C        0.17440    0.40360    0.37010    1.000
    C13      C        0.10150    0.36580    0.42670    1.000
    C14      C        0.15840    0.32830    0.48390    1.000
    C15      C        0.27920    0.33050    0.48310    1.000
    C16      C        0.76790    0.43910    0.38170    1.000
    C17      C        0.88950    0.44260    0.37900    1.000
    C18      C        0.97180    0.36250    0.42620    1.000
    C19      C        0.80300    0.28050    0.47200    1.000
    C20      C        0.92540    0.27820    0.47310    1.000
    C21      C        0.82660    0.36310    0.12990    1.000
    C22      C        0.94390    0.30510    0.16620    1.000
    C23      C        0.93270    0.26660    0.23400    1.000
    C24      C        0.04390    0.21320    0.26630    1.000
    C25      C        0.16490    0.20190    0.23060    1.000
    C26      C        0.17700    0.24270    0.16370    1.000
    C27      C        0.06710    0.29280    0.13100    1.000
    C28      C        0.31210    0.03430    0.30100    1.000
    C29      C        0.30890    0.92850    0.28060    1.000
    C30      C        0.35670    0.80460    0.31800    1.000
    C31      C        0.40730    0.78760    0.37620    1.000
    C32      C        0.40630    0.89710    0.39640    1.000
    C33      C        0.36060    0.02030    0.35860    1.000
    C34      C        0.46170    0.65260    0.41690    1.000
    C35      C        0.34730    0.53890    0.08350    1.000
    C36      C        0.21160    0.59320    0.12340    1.000
    C37      C        0.10340    0.59320    0.10330    1.000
    C38      C        0.97910    0.63890    0.14170    1.000
    C39      C        0.96580    0.68670    0.19920    1.000
    C40      C        0.07140    0.69050    0.21900    1.000
    C41      C        0.19480    0.64240    0.18210    1.000
    C42      C        0.79770    0.83500    0.26960    1.000
    C43      C        0.78700    0.95690    0.23350    1.000
    C44      C        0.73390    0.06680    0.26590    1.000
    C45      C        0.69490    0.05530    0.33400    1.000
    C46      C        0.70720    0.93280    0.36900    1.000
    C47      C        0.75730    0.82260    0.33630    1.000
    C48      C        0.63740    0.17280    0.37050    1.000
    C49      C        0.33010    0.27900    0.98310    1.000
    C50      C        0.32840    0.15770    0.98380    1.000
    C51      C        0.36620    0.10130    0.92670    1.000
    C52      C        0.40480    0.17300    0.87020    1.000
    C53      C        0.40410    0.29450    0.87370    1.000
    C54      C        0.36310    0.97070    0.92620    1.000
    C55      C        0.27780    0.92510    0.97320    1.000
    C56      C        0.28050    0.80260    0.97170    1.000
    C57      C        0.43970    0.76820    0.88150    1.000
    C58      C        0.44290    0.89000    0.87900    1.000
    C59      C        0.70660    0.59590    0.62670    1.000
    C60      C        0.82560    0.59640    0.62990    1.000
    C61      C        0.89850    0.63420    0.57330    1.000
    C62      C        0.84160    0.67170    0.51610    1.000
    C63      C        0.72080    0.66950    0.51690    1.000
    C64      C        0.23210    0.56090    0.61830    1.000
    C65      C        0.11050    0.55740    0.62100    1.000
    C66      C        0.02820    0.63750    0.57380    1.000
    C67      C        0.19700    0.71950    0.52800    1.000
    C68      C        0.07460    0.72180    0.52690    1.000
    C69      C        0.17340    0.63690    0.87010    1.000
    C70      C        0.05610    0.69490    0.83380    1.000
    C71      C        0.06730    0.73340    0.76600    1.000
    C72      C        0.95610    0.78680    0.73370    1.000
    C73      C        0.83510    0.79810    0.76940    1.000
    C74      C        0.82300    0.75730    0.83630    1.000
    C75      C        0.93290    0.70720    0.86900    1.000
    C76      C        0.68790    0.96570    0.69900    1.000
    C77      C        0.69110    0.07150    0.71940    1.000
    C78      C        0.64330    0.19540    0.68200    1.000
    C79      C        0.59270    0.21240    0.62380    1.000
    C80      C        0.59370    0.10290    0.60360    1.000
    C81      C        0.63940    0.97970    0.64140    1.000
    C82      C        0.53830    0.34740    0.58310    1.000
    C83      C        0.65270    0.46110    0.91650    1.000
    C84      C        0.78840    0.40680    0.87660    1.000
    C85      C        0.89660    0.40680    0.89670    1.000
    C86      C        0.02090    0.36110    0.85830    1.000
    C87      C        0.03420    0.31330    0.80080    1.000
    C88      C        0.92860    0.30950    0.78100    1.000
    C89      C        0.80520    0.35760    0.81790    1.000
    C90      C        0.20230    0.16500    0.73040    1.000
    C91      C        0.21300    0.04310    0.76650    1.000
    C92      C        0.26610    0.93320    0.73410    1.000
    C93      C        0.30510    0.94470    0.66600    1.000
    C94      C        0.29280    0.06720    0.63100    1.000
    C95      C        0.24270    0.17740    0.66370    1.000
    C96      C        0.36260    0.82720    0.62950    1.000
    N1       N        0.63130    0.65240    0.07117    1.000
    N2       N        0.63930    0.27740    0.07206    1.000
    N3       N        0.34760    0.36830    0.42890    1.000
    N4       N        0.72270    0.36040    0.42809    1.000
    N5       N        0.36870    0.34760    0.92883    1.000
    N6       N        0.36070    0.72260    0.92794    1.000
    N7       N        0.65240    0.63170    0.57110    1.000
    N8       N        0.27730    0.63960    0.57191    1.000
    O1       O        0.84330    0.38260    0.06722    1.000
    O2       O        0.71160    0.39300    0.16192    1.000
    O3       O        0.44160    0.54010    0.10516    1.000
    O4       O        0.35700    0.49130    0.03180    1.000
    O5       O        0.45990    0.55830    0.39471    1.000
    O6       O        0.50810    0.64300    0.46816    1.000
    O7       O        0.60710    0.28790    0.33813    1.000
    O8       O        0.61730    0.15650    0.43298    1.000
    O9       O        0.27550    0.15840    0.26240    1.000
    O10      O        0.84120    0.72420    0.23790    1.000
    O11      O        0.15670    0.61740    0.93278    1.000
    O12      O        0.28840    0.60700    0.83808    1.000
    O13      O        0.55840    0.45990    0.89484    1.000
    O14      O        0.64300    0.50870    0.96820    1.000
    O15      O        0.54010    0.44170    0.60529    1.000
    O16      O        0.49190    0.35700    0.53184    1.000
    O17      O        0.39290    0.71210    0.66187    1.000
    O18      O        0.38270    0.84350    0.56702    1.000
    O19      O        0.72450    0.84160    0.73760    1.000
    O20      O        0.15880    0.27580    0.76210    1.000
