# CIF file generated by openbabel 3.1.0, see https://openbabel.org
data_I
_chemical_name_common 'ZEDRAD_clean'
_cell_length_a 5.8767
_cell_length_b 7.5012
_cell_length_c 16.476
_cell_angle_alpha 90
_cell_angle_beta 90
_cell_angle_gamma 94.47
_space_group_name_H-M_alt 'P 1'
_space_group_name_Hall 'P 1'
loop_
    _symmetry_equiv_pos_as_xyz
    x,y,z
loop_
    _atom_site_label
    _atom_site_type_symbol
    _atom_site_fract_x
    _atom_site_fract_y
    _atom_site_fract_z
    _atom_site_occupancy
    Ba1      Ba       0.81964    0.71304    0.53280    1.000
    Ba2      Ba       0.18036    0.28696    0.03280    1.000
    Ba3      Ba       0.18036    0.28696    0.46720    1.000
    Ba4      Ba       0.81964    0.71304    0.96720    1.000
    H1       H        0.45670    0.84750    0.25000    1.000
    H2       H        0.79190    0.47380    0.25000    1.000
    H3       H        0.54330    0.15250    0.75000    1.000
    H4       H        0.20810    0.52620    0.75000    1.000
    C1       C        0.22610    0.71710    0.32316    1.000
    C2       C        0.01930    0.60230    0.32490    1.000
    C3       C        0.77390    0.28290    0.82316    1.000
    C4       C        0.98070    0.39770    0.82490    1.000
    C5       C        0.77390    0.28290    0.67684    1.000
    C6       C        0.98070    0.39770    0.67510    1.000
    C7       C        0.22610    0.71710    0.17684    1.000
    C8       C        0.01930    0.60230    0.17510    1.000
    C9       C        0.32340    0.77210    0.25000    1.000
    C10      C        0.92530    0.54920    0.25000    1.000
    C11      C        0.67660    0.22790    0.75000    1.000
    C12      C        0.07470    0.45080    0.75000    1.000
    S1       S        0.33876    0.79912    0.41489    1.000
    S2       S        0.66124    0.20088    0.91489    1.000
    S3       S        0.66124    0.20088    0.58511    1.000
    S4       S        0.33876    0.79912    0.08511    1.000
    O1       O        0.55730    0.89830    0.39936    1.000
    O2       O        0.36650    0.64670    0.46893    1.000
    O3       O        0.16950    0.91170    0.44936    1.000
    O4       O        0.92580    0.54350    0.39375    1.000
    O5       O        0.44270    0.10170    0.89936    1.000
    O6       O        0.63350    0.35330    0.96893    1.000
    O7       O        0.83050    0.08830    0.94936    1.000
    O8       O        0.07420    0.45650    0.89375    1.000
    O9       O        0.44270    0.10170    0.60064    1.000
    O10      O        0.63350    0.35330    0.53107    1.000
    O11      O        0.83050    0.08830    0.55064    1.000
    O12      O        0.07420    0.45650    0.60625    1.000
    O13      O        0.55730    0.89830    0.10064    1.000
    O14      O        0.36650    0.64670    0.03107    1.000
    O15      O        0.16950    0.91170    0.05064    1.000
    O16      O        0.92580    0.54350    0.10625    1.000
