# CIF file generated by openbabel 3.1.0, see https://openbabel.org
data_I
_chemical_name_common 'ADABUE_clean'
_cell_length_a 9.2741
_cell_length_b 9.3899
_cell_length_c 15.0567
_cell_angle_alpha 108.169
_cell_angle_beta 92.5244
_cell_angle_gamma 90
_space_group_name_H-M_alt 'P 1'
_space_group_name_Hall 'P 1'
loop_
    _symmetry_equiv_pos_as_xyz
    x,y,z
loop_
    _atom_site_label
    _atom_site_type_symbol
    _atom_site_fract_x
    _atom_site_fract_y
    _atom_site_fract_z
    _atom_site_occupancy
    Cu1      Cu       0.87996    0.36179    0.38492    1.000
    Cu2      Cu       0.62004    0.97687    0.61508    1.000
    Cu3      Cu       0.12004    0.63821    0.61508    1.000
    Cu4      Cu       0.37996    0.02313    0.38492    1.000
    H1       H        0.14310    0.70440    0.25400    1.000
    H2       H        0.03560    0.63170    0.36640    1.000
    H3       H        0.04340    0.29860    0.07020    1.000
    H4       H        0.93070    0.24000    0.18800    1.000
    H5       H        0.10830    0.60340    0.04260    1.000
    H6       H        0.25440    0.63270    0.10400    1.000
    H7       H        0.32240    0.38520    0.03040    1.000
    H8       H        0.35690    0.45040    0.74600    1.000
    H9       H        0.46440    0.26530    0.63360    1.000
    H10      H        0.45660    0.22840    0.92980    1.000
    H11      H        0.56930    0.05200    0.81200    1.000
    H12      H        0.39170    0.56080    0.95740    1.000
    H13      H        0.24560    0.52870    0.89600    1.000
    H14      H        0.17760    0.35480    0.96960    1.000
    H15      H        0.85690    0.29560    0.74600    1.000
    H16      H        0.96440    0.36830    0.63360    1.000
    H17      H        0.95660    0.70140    0.92980    1.000
    H18      H        0.06930    0.76000    0.81200    1.000
    H19      H        0.89170    0.39660    0.95740    1.000
    H20      H        0.74560    0.36730    0.89600    1.000
    H21      H        0.67760    0.61480    0.96960    1.000
    H22      H        0.64310    0.54960    0.25400    1.000
    H23      H        0.53560    0.73470    0.36640    1.000
    H24      H        0.54340    0.77160    0.07020    1.000
    H25      H        0.43070    0.94800    0.18800    1.000
    H26      H        0.60830    0.43920    0.04260    1.000
    H27      H        0.75440    0.47130    0.10400    1.000
    H28      H        0.82240    0.64520    0.03040    1.000
    C1       C        0.10220    0.60770    0.23880    1.000
    C2       C        0.03680    0.56380    0.30540    1.000
    C3       C        0.04260    0.36910    0.13020    1.000
    C4       C        0.10840    0.50900    0.14780    1.000
    C5       C        0.97620    0.33420    0.20140    1.000
    C6       C        0.18040    0.55650    0.07360    1.000
    C7       C        0.14040    0.20130    0.40640    1.000
    C8       C        0.09920    0.06760    0.32440    1.000
    C9       C        0.39780    0.36890    0.76120    1.000
    C10      C        0.46320    0.25840    0.69460    1.000
    C11      C        0.45740    0.23890    0.86980    1.000
    C12      C        0.39160    0.36120    0.85220    1.000
    C13      C        0.52380    0.13280    0.79860    1.000
    C14      C        0.31960    0.48290    0.92640    1.000
    C15      C        0.35960    0.79490    0.59360    1.000
    C16      C        0.40080    0.74320    0.67560    1.000
    C17      C        0.89780    0.39230    0.76120    1.000
    C18      C        0.96320    0.43620    0.69460    1.000
    C19      C        0.95740    0.63090    0.86980    1.000
    C20      C        0.89160    0.49100    0.85220    1.000
    C21      C        0.02380    0.66580    0.79860    1.000
    C22      C        0.81960    0.44350    0.92640    1.000
    C23      C        0.85960    0.79870    0.59360    1.000
    C24      C        0.90080    0.93240    0.67560    1.000
    C25      C        0.60220    0.63110    0.23880    1.000
    C26      C        0.53680    0.74160    0.30540    1.000
    C27      C        0.54260    0.76110    0.13020    1.000
    C28      C        0.60840    0.63880    0.14780    1.000
    C29      C        0.47620    0.86720    0.20140    1.000
    C30      C        0.68040    0.51710    0.07360    1.000
    C31      C        0.64040    0.20510    0.40640    1.000
    C32      C        0.59920    0.25680    0.32440    1.000
    C33      C        0.25000    0.43090    0.00000    1.000
    C34      C        0.75000    0.56910    0.00000    1.000
    N1       N        0.97400    0.42877    0.28854    1.000
    N2       N        0.07230    0.32768    0.44316    1.000
    N3       N        0.15920    0.41133    0.51246    1.000
    N4       N        0.27970    0.33805    0.51710    1.000
    N5       N        0.26900    0.20487    0.44994    1.000
    N6       N        0.52600    0.14023    0.71146    1.000
    N7       N        0.42770    0.88452    0.55684    1.000
    N8       N        0.34080    0.89887    0.48754    1.000
    N9       N        0.22030    0.82095    0.48290    1.000
    N10      N        0.23100    0.75493    0.55006    1.000
    N11      N        0.02600    0.57123    0.71146    1.000
    N12      N        0.92770    0.67232    0.55684    1.000
    N13      N        0.84080    0.58867    0.48754    1.000
    N14      N        0.72030    0.66195    0.48290    1.000
    N15      N        0.73100    0.79513    0.55006    1.000
    N16      N        0.47400    0.85977    0.28854    1.000
    N17      N        0.57230    0.11548    0.44316    1.000
    N18      N        0.65920    0.10113    0.51246    1.000
    N19      N        0.77970    0.17905    0.51710    1.000
    N20      N        0.76900    0.24507    0.44994    1.000
    O1       O        0.19830    0.97110    0.30540    1.000
    O2       O        0.97960    0.06282    0.28504    1.000
    O3       O        0.30170    0.66570    0.69460    1.000
    O4       O        0.52040    0.77778    0.71496    1.000
    O5       O        0.80170    0.02890    0.69460    1.000
    O6       O        0.02040    0.93718    0.71496    1.000
    O7       O        0.69830    0.33430    0.30540    1.000
    O8       O        0.47960    0.22222    0.28504    1.000
