data_functionalizedCrystal
_audit_creation_method	'EQeq! by Chris Wilmer'
_symmetry_space_group_name_H-M	'P1'
_symmetry_Int_Tables_number	1
_symmetry_cell_setting	triclinic
loop_
_symmetry_equiv_pos_as_xyz
  x,y,z
_cell_length_a	11.5618
_cell_length_b	11.8493
_cell_length_c	15.7206
_cell_angle_alpha	76.325
_cell_angle_beta	71.246
_cell_angle_gamma	65.33
loop_
_atom_site_label
_atom_site_type_symbol
_atom_site_fract_x
_atom_site_fract_y
_atom_site_fract_z
_atom_site_charge
Mof_Co	Co	0.5	0.5	-0	1.083
Mof_Co	Co	-0	0.5	-0	1.085
Mof_Co	Co	-0	0	-0	1.019
Mof_H 	H 	0.4121	0.5519	0.2026	-0.006
Mof_H 	H 	0.9541	0.6865	0.5533	0.096
Mof_H 	H 	0.382	0.4509	0.3459	0.075
Mof_H 	H 	0.3226	0.0999	0.3775	0.021
Mof_H 	H 	0.1582	0.3379	0.1436	-0.01
Mof_H 	H 	0.2995	0.8059	0.057	-0.018
Mof_H 	H 	0.1582	0.3312	0.2911	0.075
Mof_H 	H 	0.124	0.3304	0.8489	0.045
Mof_H 	H 	0.1308	0.3263	0.7021	0.089
Mof_H 	H 	0.9048	0.9395	0.3437	0.126
Mof_H 	H 	0.9876	0.0213	0.8049	0.093
Mof_H 	H 	0.4584	0.3044	0.4647	0.038
Mof_H 	H 	0.3791	0.0771	0.7419	0.056
Mof_H 	H 	0.0124	0.9787	0.1951	-0.081
Mof_H 	H 	0.0459	0.3135	0.4467	-0.007
Mof_H 	H 	0.6113	0.7783	0.3867	0.042
Mof_H 	H 	0.0267	0.3137	0.599	0.088
Mof_H 	H 	0.4874	0.2474	0.1011	-0.049
Mof_H 	H 	0.2682	0.0341	0.8888	0.04
Mof_H 	H 	0.6774	0.9001	0.6225	0.06
Mof_H 	H 	0.4568	0.1392	0.2422	0.053
Mof_H 	H 	0.8418	0.6621	0.8564	0.042
Mof_H 	H 	0.6209	0.9229	0.2581	0.093
Mof_H 	H 	0.0952	0.0605	0.6563	0.018
Mof_H 	H 	0.2575	0.0157	0.526	0.027
Mof_H 	H 	0.7318	0.9659	0.1112	-0.021
Mof_H 	H 	0.618	0.5491	0.6541	0.081
Mof_H 	H 	0.5126	0.7526	0.8989	0.052
Mof_H 	H 	0.5879	0.4481	0.7974	0.007
Mof_H 	H 	0.5432	0.8608	0.7578	0.097
Mof_H 	H 	0.8418	0.6688	0.7089	0.081
Mof_H 	H 	0.876	0.6696	0.1511	-0.027
Mof_H 	H 	0.7005	0.1941	0.943	0.002
Mof_H 	H 	0.9733	0.6863	0.401	0.003
Mof_H 	H 	0.5416	0.6956	0.5353	0.049
Mof_H 	H 	0.8692	0.6737	0.2979	0.073
Mof_H 	H 	0.7425	0.9843	0.474	0.059
Mof_H 	H 	0.3887	0.2217	0.6133	0.048
Mof_C 	C 	0.271	0.497	0.965	0.303
Mof_C 	C 	0.2292	0.6239	0.9935	0.074
Mof_C 	C 	0.7016	0.9338	0.2468	-0.165
Mof_C 	C 	0.7516	0.9238	0.3188	0.126
Mof_C 	C 	0.9345	0.5994	0.1799	0.138
Mof_C 	C 	0.3114	0.1146	0.5846	0.006
Mof_C 	C 	0.8817	0.2667	0.0065	-0.082
Mof_C 	C 	0.4653	0.2895	0.1519	0.067
Mof_C 	C 	0.8678	0.9431	0.2968	-0.216
Mof_C 	C 	0.4474	0.2241	0.2361	-0.145
Mof_C 	C 	0.9295	0.6027	0.268	-0.09
Mof_C 	C 	0.9736	0.6106	0.5316	-0.158
Mof_C 	C 	0.7683	0.9594	0.1592	0.1
Mof_C 	C 	0.0131	0.5017	0.3131	0.047
Mof_C 	C 	0.6886	0.8854	0.4154	-0.019
Mof_C 	C 	0.4219	0.4667	0.2106	0.079
Mof_C 	C 	0.9924	0.4998	0.5911	0.134
Mof_C 	C 	0.729	0.503	0.035	0.339
Mof_C 	C 	0.2598	0.7653	0.0363	0.076
Mof_C 	C 	0.7402	0.2347	0.9637	0.146
Mof_C 	C 	0.9897	0.7716	0.9721	0.353
Mof_C 	C 	0.4138	0.2485	0.477	-0.038
Mof_C 	C 	0.5862	0.7515	0.523	-0.044
Mof_C 	C 	0.1322	0.0569	0.7032	-0.049
Mof_C 	C 	0.0684	0.0326	0.7922	-0.095
Mof_C 	C 	0.9832	0.6109	0.4412	0.135
Mof_C 	C 	0.5965	0.5932	0.7037	-0.132
Mof_C 	C 	0.0988	0.4025	0.2638	-0.148
Mof_C 	C 	0.0168	0.3891	0.5588	-0.222
Mof_C 	C 	0.0103	0.2284	0.0279	0.244
Mof_C 	C 	0.2955	0.077	0.5139	-0.067
Mof_C 	C 	0.9869	0.4983	0.6869	0.105
Mof_C 	C 	0.9316	0.9674	0.2078	0.236
Mof_C 	C 	0.6111	0.7829	0.5943	0.003
Mof_C 	C 	0.0705	0.3973	0.732	-0.183
Mof_C 	C 	0.334	0.1273	0.4253	-0.041
Mof_C 	C 	0.9012	0.5975	0.7362	-0.12
Mof_C 	C 	0.1183	0.7333	0.9935	0.005
Mof_C 	C 	0.2984	0.0662	0.7532	-0.103
Mof_C 	C 	0.5845	0.7191	0.6871	0.077
Mof_C 	C 	0.5781	0.5333	0.7894	0.085
Mof_C 	C 	0.5347	0.7105	0.8481	0.084
Mof_C 	C 	0.2484	0.0762	0.6812	0.014
Mof_C 	C 	0.5526	0.7759	0.7639	-0.126
Mof_C 	C 	0.3734	0.1982	0.5654	-0.068
Mof_C 	C 	0.0655	0.4006	0.8201	0.035
Mof_C 	C 	0.4155	0.2809	0.3129	0.072
Mof_C 	C 	0.7045	0.923	0.4861	-0.026
Mof_C 	C 	0.7708	0.3761	0.0065	-0.176
Mof_C 	C 	0.9021	0.593	0.8243	0.092
Mof_C 	C 	0.0979	0.407	0.1757	0.058
Mof_C 	C 	0.2317	0.0406	0.8408	0.047
Mof_C 	C 	0.0076	0.5002	0.4089	-0.153
Mof_C 	C 	0.0264	0.3894	0.4684	0.071
Mof_C 	C 	0.4035	0.4068	0.2963	-0.141
Mof_C 	C 	0.666	0.8727	0.5747	-0.046
Mof_C 	C 	0.3889	0.2171	0.4057	-0.024
Mof_C 	C 	0.6266	0.8018	0.4346	-0.028
Mof_N 	N 	0.016	0.5041	0.1324	-0.286
Mof_N 	N 	0.6822	0.3545	0.9792	-0.12
Mof_N 	N 	0.883	0.9757	0.1389	-0.24
Mof_N 	N 	0.3178	0.6455	0.0208	-0.315
Mof_N 	N 	0.984	0.4959	0.8676	-0.14
Mof_N 	N 	0.117	0.0243	0.8611	-0.182
Mof_N 	N 	0.1399	0.8231	0.0199	-0.3
Mof_N 	N 	0.4533	0.411	0.1366	-0.249
Mof_N 	N 	0.8601	0.1769	0.9801	-0.125
Mof_N 	N 	0.5467	0.589	0.8634	-0.197
Mof_O 	O 	0.1946	0.4681	0.9422	-0.345
Mof_O 	O 	0.055	0.3061	0.0321	-0.435
Mof_O 	O 	0.3895	0.4254	0.9629	-0.319
Mof_O 	O 	0.945	0.6939	0.9679	-0.299
Mof_O 	O 	0.8054	0.5319	0.0578	-0.41
Mof_O 	O 	0.0742	0.1098	0.0389	-0.458
Mof_O 	O 	0.9258	0.8902	0.9611	-0.281
Mof_O 	O 	0.6105	0.5746	0.0371	-0.442
_end
