data_functionalizedCrystal
_audit_creation_method	'EQeq! by Chris Wilmer'
_symmetry_space_group_name_H-M	'P1'
_symmetry_Int_Tables_number	1
_symmetry_cell_setting	triclinic
loop_
_symmetry_equiv_pos_as_xyz
  x,y,z
_cell_length_a	9.8846
_cell_length_b	9.8846
_cell_length_c	13.3526
_cell_angle_alpha	85.3246
_cell_angle_beta	70.1781
_cell_angle_gamma	115.583
loop_
_atom_site_label
_atom_site_type_symbol
_atom_site_fract_x
_atom_site_fract_y
_atom_site_fract_z
_atom_site_charge
Mof_Dy	Dy	0.26534	0.53884	0.00262	1.999
Mof_Dy	Dy	0.04146	0.26796	0.49738	1.983
Mof_Dy	Dy	0.73466	0.46116	0.99738	1.999
Mof_Dy	Dy	0.95854	0.73204	0.50262	1.983
Mof_H 	H 	0.9903	0.0528	0.1473	0.042
Mof_H 	H 	0.8203	0.762	0.1803	0.017
Mof_H 	H 	0.7001	0.1376	0.3527	0.041
Mof_H 	H 	0.4423	0.0006	0.3197	0.014
Mof_H 	H 	0.0097	0.9472	0.8527	0.042
Mof_H 	H 	0.1797	0.238	0.8197	0.017
Mof_H 	H 	0.2999	0.8624	0.6473	0.041
Mof_H 	H 	0.5577	0.9994	0.6803	0.014
Mof_C 	C 	0.8812	0.231	0.0388	0.463
Mof_C 	C 	0.688	0.8173	0.1101	-0.035
Mof_C 	C 	0.9004	0.0017	0.1303	-0.018
Mof_C 	C 	0.5604	0.6774	0.0982	0.454
Mof_C 	C 	0.8055	0.839	0.1485	-0.024
Mof_C 	C 	0.0659	0.4102	0.2647	0.273
Mof_C 	C 	0.8341	0.0681	0.083	-0.035
Mof_C 	C 	0.7698	0.92	0.4612	0.446
Mof_C 	C 	0.4274	0.7981	0.3899	-0.038
Mof_C 	C 	0.632	0.0307	0.3697	-0.026
Mof_C 	C 	0.2756	0.6586	0.4018	0.454
Mof_C 	C 	0.4875	0.954	0.3515	-0.015
Mof_C 	C 	0.1749	0.3306	0.2353	0.277
Mof_C 	C 	0.6511	0.9171	0.417	-0.04
Mof_C 	C 	0.1188	0.769	0.9612	0.463
Mof_C 	C 	0.312	0.1827	0.8899	-0.035
Mof_C 	C 	0.0996	0.9983	0.8697	-0.018
Mof_C 	C 	0.4396	0.3226	0.9018	0.454
Mof_C 	C 	0.1945	0.161	0.8515	-0.024
Mof_C 	C 	0.9341	0.5898	0.7353	0.273
Mof_C 	C 	0.1659	0.9319	0.917	-0.035
Mof_C 	C 	0.2302	0.08	0.5388	0.446
Mof_C 	C 	0.5726	0.2019	0.6101	-0.038
Mof_C 	C 	0.368	0.9693	0.6303	-0.026
Mof_C 	C 	0.7244	0.3414	0.5982	0.454
Mof_C 	C 	0.5125	0.046	0.6485	-0.015
Mof_C 	C 	0.8251	0.6694	0.7647	0.277
Mof_C 	C 	0.3489	0.0829	0.583	-0.04
Mof_O 	O 	0.0117	0.3347	0.0386	-0.569
Mof_O 	O 	0.7872	0.2545	0.0043	-0.524
Mof_O 	O 	0.0766	0.4991	0.1873	-0.422
Mof_O 	O 	0.582	0.5607	0.0985	-0.56
Mof_O 	O 	0.7011	0.956	0.0719	-0.154
Mof_O 	O 	0.4415	0.6834	0.0879	-0.475
Mof_O 	O 	0.9733	0.3757	0.3642	-0.421
Mof_O 	O 	0.8733	0.0503	0.4614	-0.555
Mof_O 	O 	0.7588	0.7915	0.4957	-0.522
Mof_O 	O 	0.1864	0.2639	0.3127	-0.423
Mof_O 	O 	0.1592	0.6805	0.4015	-0.558
Mof_O 	O 	0.5279	0.773	0.4281	-0.148
Mof_O 	O 	0.2713	0.5294	0.4121	-0.473
Mof_O 	O 	0.2399	0.3375	0.1358	-0.428
Mof_O 	O 	0.9883	0.6653	0.9614	-0.569
Mof_O 	O 	0.2128	0.7455	0.9957	-0.524
Mof_O 	O 	0.9234	0.5009	0.8127	-0.422
Mof_O 	O 	0.418	0.4393	0.9015	-0.56
Mof_O 	O 	0.2989	0.044	0.9281	-0.154
Mof_O 	O 	0.5585	0.3166	0.9121	-0.475
Mof_O 	O 	0.0267	0.6243	0.6358	-0.421
Mof_O 	O 	0.1267	0.9497	0.5386	-0.555
Mof_O 	O 	0.2412	0.2085	0.5043	-0.522
Mof_O 	O 	0.8136	0.7361	0.6873	-0.423
Mof_O 	O 	0.8408	0.3195	0.5985	-0.558
Mof_O 	O 	0.4721	0.227	0.5719	-0.148
Mof_O 	O 	0.7287	0.4706	0.5879	-0.473
Mof_O 	O 	0.7601	0.6625	0.8642	-0.428
_end
