data_functionalizedCrystal
_audit_creation_method	'EQeq! by Chris Wilmer'
_symmetry_space_group_name_H-M	'P1'
_symmetry_Int_Tables_number	1
_symmetry_cell_setting	triclinic
loop_
_symmetry_equiv_pos_as_xyz
  x,y,z
_cell_length_a	20.832
_cell_length_b	20.832
_cell_length_c	20.832
_cell_angle_alpha	90
_cell_angle_beta	90
_cell_angle_gamma	90
loop_
_atom_site_label
_atom_site_type_symbol
_atom_site_fract_x
_atom_site_fract_y
_atom_site_fract_z
_atom_site_charge
Mof_Cl	Cl	0.0533	0.39878	0.05759	-0.322
Mof_N 	N 	0.1953	0.1764	0.0279	-0.066
Mof_N 	N 	0.1755	0.197	0.971	-0.09
Mof_N 	N 	0.158	0.1974	0.0736	-0.062
Mof_N 	N 	0.1114	0.2332	0.0473	-0.102
Mof_C 	C 	0.1237	0.2323	0.9849	0.119
Mof_C 	C 	0.0863	0.2658	0.9353	0.005
Mof_C 	C 	0.1175	0.2985	0.8862	-0.033
Mof_H 	H 	0.163	0.2998	0.885	0.057
Mof_C 	C 	0.082	0.3294	0.8389	-0.026
Mof_H 	H 	0.1032	0.3518	0.8054	0.052
Mof_C 	C 	0.0153	0.3276	0.8407	0.026
Mof_C 	C 	0.9841	0.2948	0.8898	-0.022
Mof_H 	H 	0.9385	0.2936	0.891	0.096
Mof_C 	C 	0.0196	0.2639	0.9371	-0.031
Mof_H 	H 	0.9983	0.2416	0.9706	0.065
Mof_C 	C 	0.977	0.3609	0.7897	0.286
Mof_O 	O 	0.9191	0.3471	0.7818	-0.247
Mof_N 	N 	0.0048	0.4055	0.7526	-0.245
Mof_H 	H 	0.0487	0.416	0.7586	0.145
Mof_Cl	Cl	0.4467	0.60122	0.55759	-0.322
Mof_N 	N 	0.3047	0.8236	0.5279	-0.065
Mof_N 	N 	0.3245	0.803	0.471	-0.09
Mof_N 	N 	0.342	0.8026	0.5736	-0.062
Mof_N 	N 	0.3886	0.7668	0.5473	-0.102
Mof_C 	C 	0.3763	0.7677	0.4849	0.12
Mof_C 	C 	0.4137	0.7342	0.4353	0.005
Mof_C 	C 	0.3825	0.7015	0.3862	-0.033
Mof_H 	H 	0.337	0.7002	0.385	0.057
Mof_C 	C 	0.418	0.6706	0.3389	-0.026
Mof_H 	H 	0.3968	0.6482	0.3054	0.052
Mof_C 	C 	0.4847	0.6724	0.3407	0.027
Mof_C 	C 	0.5159	0.7052	0.3898	-0.023
Mof_H 	H 	0.5615	0.7064	0.391	0.096
Mof_C 	C 	0.4804	0.7361	0.4371	-0.03
Mof_H 	H 	0.5017	0.7584	0.4706	0.065
Mof_C 	C 	0.523	0.6391	0.2897	0.286
Mof_O 	O 	0.5809	0.6529	0.2818	-0.247
Mof_N 	N 	0.4952	0.5945	0.2526	-0.245
Mof_H 	H 	0.4513	0.584	0.2586	0.145
Mof_Cl	Cl	0.9467	0.89878	0.44241	-0.322
Mof_N 	N 	0.8047	0.6764	0.4721	-0.065
Mof_N 	N 	0.8245	0.697	0.529	-0.09
Mof_N 	N 	0.842	0.6974	0.4264	-0.062
Mof_N 	N 	0.8886	0.7332	0.4527	-0.103
Mof_C 	C 	0.8763	0.7323	0.5151	0.12
Mof_C 	C 	0.9137	0.7658	0.5647	0.004
Mof_C 	C 	0.8825	0.7985	0.6138	-0.032
Mof_H 	H 	0.837	0.7998	0.615	0.057
Mof_C 	C 	0.918	0.8294	0.6611	-0.027
Mof_H 	H 	0.8968	0.8518	0.6946	0.052
Mof_C 	C 	0.9847	0.8276	0.6593	0.027
Mof_C 	C 	0.0159	0.7948	0.6102	-0.024
Mof_H 	H 	0.0615	0.7936	0.609	0.097
Mof_C 	C 	0.9804	0.7639	0.5629	-0.028
Mof_H 	H 	0.0017	0.7416	0.5294	0.064
Mof_C 	C 	0.023	0.8609	0.7103	0.287
Mof_O 	O 	0.0809	0.8471	0.7182	-0.247
Mof_N 	N 	0.9952	0.9055	0.7474	-0.244
Mof_H 	H 	0.9513	0.916	0.7414	0.145
Mof_Cl	Cl	0.5533	0.10122	0.94241	-0.322
Mof_N 	N 	0.6953	0.3236	0.9721	-0.065
Mof_N 	N 	0.6755	0.303	0.029	-0.09
Mof_N 	N 	0.658	0.3026	0.9264	-0.062
Mof_N 	N 	0.6114	0.2668	0.9527	-0.103
Mof_C 	C 	0.6237	0.2677	0.0151	0.12
Mof_C 	C 	0.5863	0.2342	0.0647	0.005
Mof_C 	C 	0.6175	0.2015	0.1138	-0.033
Mof_H 	H 	0.663	0.2002	0.115	0.057
Mof_C 	C 	0.582	0.1706	0.1611	-0.026
Mof_H 	H 	0.6032	0.1482	0.1946	0.052
Mof_C 	C 	0.5153	0.1724	0.1593	0.027
Mof_C 	C 	0.4841	0.2052	0.1102	-0.023
Mof_H 	H 	0.4385	0.2064	0.109	0.096
Mof_C 	C 	0.5196	0.2361	0.0629	-0.03
Mof_H 	H 	0.4983	0.2584	0.0294	0.065
Mof_C 	C 	0.477	0.1391	0.2103	0.286
Mof_O 	O 	0.4191	0.1529	0.2182	-0.247
Mof_N 	N 	0.5048	0.0945	0.2474	-0.245
Mof_H 	H 	0.5487	0.084	0.2414	0.145
Mof_Cl	Cl	0.05759	0.0533	0.39878	-0.321
Mof_N 	N 	0.0279	0.1953	0.1764	-0.065
Mof_N 	N 	0.971	0.1755	0.197	-0.09
Mof_N 	N 	0.0736	0.158	0.1974	-0.062
Mof_N 	N 	0.0473	0.1114	0.2332	-0.102
Mof_C 	C 	0.9849	0.1237	0.2323	0.119
Mof_C 	C 	0.9353	0.0863	0.2658	0.005
Mof_C 	C 	0.8862	0.1175	0.2985	-0.033
Mof_H 	H 	0.885	0.163	0.2998	0.057
Mof_C 	C 	0.8389	0.082	0.3294	-0.026
Mof_H 	H 	0.8054	0.1032	0.3518	0.052
Mof_C 	C 	0.8407	0.0153	0.3276	0.026
Mof_C 	C 	0.8898	0.9841	0.2948	-0.022
Mof_H 	H 	0.891	0.9385	0.2936	0.096
Mof_C 	C 	0.9371	0.0196	0.2639	-0.031
Mof_H 	H 	0.9706	0.9983	0.2416	0.065
Mof_C 	C 	0.7897	0.977	0.3609	0.286
Mof_O 	O 	0.7818	0.9191	0.3471	-0.247
Mof_N 	N 	0.7526	0.0048	0.4055	-0.245
Mof_H 	H 	0.7586	0.0487	0.416	0.145
Mof_Cl	Cl	0.55759	0.4467	0.60122	-0.322
Mof_N 	N 	0.5279	0.3047	0.8236	-0.065
Mof_N 	N 	0.471	0.3245	0.803	-0.09
Mof_N 	N 	0.5736	0.342	0.8026	-0.062
Mof_N 	N 	0.5473	0.3886	0.7668	-0.102
Mof_C 	C 	0.4849	0.3763	0.7677	0.12
Mof_C 	C 	0.4353	0.4137	0.7342	0.005
Mof_C 	C 	0.3862	0.3825	0.7015	-0.033
Mof_H 	H 	0.385	0.337	0.7002	0.057
Mof_C 	C 	0.3389	0.418	0.6706	-0.026
Mof_H 	H 	0.3054	0.3968	0.6482	0.052
Mof_C 	C 	0.3407	0.4847	0.6724	0.027
Mof_C 	C 	0.3898	0.5159	0.7052	-0.023
Mof_H 	H 	0.391	0.5615	0.7064	0.096
Mof_C 	C 	0.4371	0.4804	0.7361	-0.03
Mof_H 	H 	0.4706	0.5017	0.7584	0.065
Mof_C 	C 	0.2897	0.523	0.6391	0.286
Mof_O 	O 	0.2818	0.5809	0.6529	-0.247
Mof_N 	N 	0.2526	0.4952	0.5945	-0.245
Mof_H 	H 	0.2586	0.4513	0.584	0.145
Mof_Cl	Cl	0.44241	0.9467	0.89878	-0.322
Mof_N 	N 	0.4721	0.8047	0.6764	-0.065
Mof_N 	N 	0.529	0.8245	0.697	-0.09
Mof_N 	N 	0.4264	0.842	0.6974	-0.062
Mof_N 	N 	0.4527	0.8886	0.7332	-0.103
Mof_C 	C 	0.5151	0.8763	0.7323	0.12
Mof_C 	C 	0.5647	0.9137	0.7658	0.004
Mof_C 	C 	0.6138	0.8825	0.7985	-0.032
Mof_H 	H 	0.615	0.837	0.7998	0.057
Mof_C 	C 	0.6611	0.918	0.8294	-0.027
Mof_H 	H 	0.6946	0.8968	0.8518	0.052
Mof_C 	C 	0.6593	0.9847	0.8276	0.027
Mof_C 	C 	0.6102	0.0159	0.7948	-0.024
Mof_H 	H 	0.609	0.0615	0.7936	0.097
Mof_C 	C 	0.5629	0.9804	0.7639	-0.028
Mof_H 	H 	0.5294	0.0017	0.7416	0.064
Mof_C 	C 	0.7103	0.023	0.8609	0.287
Mof_O 	O 	0.7182	0.0809	0.8471	-0.247
Mof_N 	N 	0.7474	0.9952	0.9055	-0.244
Mof_H 	H 	0.7414	0.9513	0.916	0.145
Mof_Cl	Cl	0.94241	0.5533	0.10122	-0.322
Mof_N 	N 	0.9721	0.6953	0.3236	-0.065
Mof_N 	N 	0.029	0.6755	0.303	-0.09
Mof_N 	N 	0.9264	0.658	0.3026	-0.062
Mof_N 	N 	0.9527	0.6114	0.2668	-0.103
Mof_C 	C 	0.0151	0.6237	0.2677	0.12
Mof_C 	C 	0.0647	0.5863	0.2342	0.005
Mof_C 	C 	0.1138	0.6175	0.2015	-0.033
Mof_H 	H 	0.115	0.663	0.2002	0.057
Mof_C 	C 	0.1611	0.582	0.1706	-0.026
Mof_H 	H 	0.1946	0.6032	0.1482	0.052
Mof_C 	C 	0.1593	0.5153	0.1724	0.027
Mof_C 	C 	0.1102	0.4841	0.2052	-0.023
Mof_H 	H 	0.109	0.4385	0.2064	0.096
Mof_C 	C 	0.0629	0.5196	0.2361	-0.03
Mof_H 	H 	0.0294	0.4983	0.2584	0.065
Mof_C 	C 	0.2103	0.477	0.1391	0.286
Mof_O 	O 	0.2182	0.4191	0.1529	-0.247
Mof_N 	N 	0.2474	0.5048	0.0945	-0.245
Mof_H 	H 	0.2414	0.5487	0.084	0.145
Mof_Cl	Cl	0.39878	0.05759	0.0533	-0.321
Mof_N 	N 	0.1764	0.0279	0.1953	-0.065
Mof_N 	N 	0.197	0.971	0.1755	-0.09
Mof_N 	N 	0.1974	0.0736	0.158	-0.062
Mof_N 	N 	0.2332	0.0473	0.1114	-0.102
Mof_C 	C 	0.2323	0.9849	0.1237	0.119
Mof_C 	C 	0.2658	0.9353	0.0863	0.005
Mof_C 	C 	0.2985	0.8862	0.1175	-0.033
Mof_H 	H 	0.2998	0.885	0.163	0.057
Mof_C 	C 	0.3294	0.8389	0.082	-0.026
Mof_H 	H 	0.3518	0.8054	0.1032	0.052
Mof_C 	C 	0.3276	0.8407	0.0153	0.026
Mof_C 	C 	0.2948	0.8898	0.9841	-0.022
Mof_H 	H 	0.2936	0.891	0.9385	0.096
Mof_C 	C 	0.2639	0.9371	0.0196	-0.031
Mof_H 	H 	0.2416	0.9706	0.9983	0.065
Mof_C 	C 	0.3609	0.7897	0.977	0.286
Mof_O 	O 	0.3471	0.7818	0.9191	-0.247
Mof_N 	N 	0.4055	0.7526	0.0048	-0.245
Mof_H 	H 	0.416	0.7586	0.0487	0.145
Mof_Cl	Cl	0.60122	0.55759	0.4467	-0.322
Mof_N 	N 	0.8236	0.5279	0.3047	-0.065
Mof_N 	N 	0.803	0.471	0.3245	-0.09
Mof_N 	N 	0.8026	0.5736	0.342	-0.062
Mof_N 	N 	0.7668	0.5473	0.3886	-0.102
Mof_C 	C 	0.7677	0.4849	0.3763	0.12
Mof_C 	C 	0.7342	0.4353	0.4137	0.005
Mof_C 	C 	0.7015	0.3862	0.3825	-0.033
Mof_H 	H 	0.7002	0.385	0.337	0.057
Mof_C 	C 	0.6706	0.3389	0.418	-0.026
Mof_H 	H 	0.6482	0.3054	0.3968	0.052
Mof_C 	C 	0.6724	0.3407	0.4847	0.027
Mof_C 	C 	0.7052	0.3898	0.5159	-0.023
Mof_H 	H 	0.7064	0.391	0.5615	0.096
Mof_C 	C 	0.7361	0.4371	0.4804	-0.03
Mof_H 	H 	0.7584	0.4706	0.5017	0.065
Mof_C 	C 	0.6391	0.2897	0.523	0.286
Mof_O 	O 	0.6529	0.2818	0.5809	-0.247
Mof_N 	N 	0.5945	0.2526	0.4952	-0.245
Mof_H 	H 	0.584	0.2586	0.4513	0.145
Mof_Cl	Cl	0.89878	0.44241	0.9467	-0.322
Mof_N 	N 	0.6764	0.4721	0.8047	-0.065
Mof_N 	N 	0.697	0.529	0.8245	-0.09
Mof_N 	N 	0.6974	0.4264	0.842	-0.062
Mof_N 	N 	0.7332	0.4527	0.8886	-0.103
Mof_C 	C 	0.7323	0.5151	0.8763	0.12
Mof_C 	C 	0.7658	0.5647	0.9137	0.004
Mof_C 	C 	0.7985	0.6138	0.8825	-0.032
Mof_H 	H 	0.7998	0.615	0.837	0.057
Mof_C 	C 	0.8294	0.6611	0.918	-0.027
Mof_H 	H 	0.8518	0.6946	0.8968	0.052
Mof_C 	C 	0.8276	0.6593	0.9847	0.027
Mof_C 	C 	0.7948	0.6102	0.0159	-0.024
Mof_H 	H 	0.7936	0.609	0.0615	0.097
Mof_C 	C 	0.7639	0.5629	0.9804	-0.028
Mof_H 	H 	0.7416	0.5294	0.0017	0.064
Mof_C 	C 	0.8609	0.7103	0.023	0.287
Mof_O 	O 	0.8471	0.7182	0.0809	-0.247
Mof_N 	N 	0.9055	0.7474	0.9952	-0.244
Mof_H 	H 	0.916	0.7414	0.9513	0.145
Mof_Cl	Cl	0.10122	0.94241	0.5533	-0.322
Mof_N 	N 	0.3236	0.9721	0.6953	-0.065
Mof_N 	N 	0.303	0.029	0.6755	-0.09
Mof_N 	N 	0.3026	0.9264	0.658	-0.062
Mof_N 	N 	0.2668	0.9527	0.6114	-0.103
Mof_C 	C 	0.2677	0.0151	0.6237	0.12
Mof_C 	C 	0.2342	0.0647	0.5863	0.005
Mof_C 	C 	0.2015	0.1138	0.6175	-0.033
Mof_H 	H 	0.2002	0.115	0.663	0.057
Mof_C 	C 	0.1706	0.1611	0.582	-0.026
Mof_H 	H 	0.1482	0.1946	0.6032	0.052
Mof_C 	C 	0.1724	0.1593	0.5153	0.027
Mof_C 	C 	0.2052	0.1102	0.4841	-0.023
Mof_H 	H 	0.2064	0.109	0.4385	0.096
Mof_C 	C 	0.2361	0.0629	0.5196	-0.03
Mof_H 	H 	0.2584	0.0294	0.4983	0.065
Mof_C 	C 	0.1391	0.2103	0.477	0.286
Mof_O 	O 	0.1529	0.2182	0.4191	-0.247
Mof_N 	N 	0.0945	0.2474	0.5048	-0.245
Mof_H 	H 	0.084	0.2414	0.5487	0.145
Mof_Cl	Cl	0.14878	0.3033	0.19241	-0.322
Mof_N 	N 	0.9264	0.4453	0.2221	-0.065
Mof_N 	N 	0.947	0.4255	0.279	-0.09
Mof_N 	N 	0.9474	0.408	0.1764	-0.062
Mof_N 	N 	0.9832	0.3614	0.2027	-0.103
Mof_C 	C 	0.9823	0.3737	0.2651	0.119
Mof_C 	C 	0.0158	0.3363	0.3147	0.005
Mof_C 	C 	0.0485	0.3675	0.3638	-0.033
Mof_H 	H 	0.0498	0.413	0.365	0.057
Mof_C 	C 	0.0794	0.332	0.4111	-0.026
Mof_H 	H 	0.1018	0.3532	0.4446	0.052
Mof_C 	C 	0.0776	0.2653	0.4093	0.027
Mof_C 	C 	0.0448	0.2341	0.3602	-0.023
Mof_H 	H 	0.0436	0.1885	0.359	0.097
Mof_C 	C 	0.0139	0.2696	0.3129	-0.029
Mof_H 	H 	0.9916	0.2483	0.2794	0.064
Mof_C 	C 	0.1109	0.227	0.4603	0.286
Mof_O 	O 	0.0971	0.1691	0.4682	-0.247
Mof_N 	N 	0.1555	0.2548	0.4974	-0.245
Mof_H 	H 	0.166	0.2987	0.4914	0.145
Mof_Cl	Cl	0.35122	0.6967	0.69241	-0.322
Mof_N 	N 	0.5736	0.5547	0.7221	-0.065
Mof_N 	N 	0.553	0.5745	0.779	-0.09
Mof_N 	N 	0.5526	0.592	0.6764	-0.062
Mof_N 	N 	0.5168	0.6386	0.7027	-0.102
Mof_C 	C 	0.5177	0.6263	0.7651	0.12
Mof_C 	C 	0.4842	0.6637	0.8147	0.005
Mof_C 	C 	0.4515	0.6325	0.8638	-0.033
Mof_H 	H 	0.4502	0.587	0.865	0.057
Mof_C 	C 	0.4206	0.668	0.9111	-0.026
Mof_H 	H 	0.3982	0.6468	0.9446	0.052
Mof_C 	C 	0.4224	0.7347	0.9093	0.026
Mof_C 	C 	0.4552	0.7659	0.8602	-0.023
Mof_H 	H 	0.4564	0.8115	0.859	0.096
Mof_C 	C 	0.4861	0.7304	0.8129	-0.03
Mof_H 	H 	0.5084	0.7517	0.7794	0.065
Mof_C 	C 	0.3891	0.773	0.9603	0.287
Mof_O 	O 	0.4029	0.8309	0.9682	-0.247
Mof_N 	N 	0.3445	0.7452	0.9974	-0.245
Mof_H 	H 	0.334	0.7013	0.9914	0.145
Mof_Cl	Cl	0.64878	0.1967	0.80759	-0.322
Mof_N 	N 	0.4264	0.0547	0.7779	-0.065
Mof_N 	N 	0.447	0.0745	0.721	-0.09
Mof_N 	N 	0.4474	0.092	0.8236	-0.062
Mof_N 	N 	0.4832	0.1386	0.7973	-0.102
Mof_C 	C 	0.4823	0.1263	0.7349	0.12
Mof_C 	C 	0.5158	0.1637	0.6853	0.005
Mof_C 	C 	0.5485	0.1325	0.6362	-0.033
Mof_H 	H 	0.5498	0.087	0.635	0.057
Mof_C 	C 	0.5794	0.168	0.5889	-0.026
Mof_H 	H 	0.6018	0.1468	0.5554	0.052
Mof_C 	C 	0.5776	0.2347	0.5907	0.027
Mof_C 	C 	0.5448	0.2659	0.6398	-0.023
Mof_H 	H 	0.5436	0.3115	0.641	0.096
Mof_C 	C 	0.5139	0.2304	0.6871	-0.03
Mof_H 	H 	0.4916	0.2517	0.7206	0.065
Mof_C 	C 	0.6109	0.273	0.5397	0.286
Mof_O 	O 	0.5971	0.3309	0.5318	-0.247
Mof_N 	N 	0.6555	0.2452	0.5026	-0.245
Mof_H 	H 	0.666	0.2013	0.5086	0.145
Mof_Cl	Cl	0.85122	0.8033	0.30759	-0.322
Mof_N 	N 	0.0736	0.9453	0.2779	-0.066
Mof_N 	N 	0.053	0.9255	0.221	-0.09
Mof_N 	N 	0.0526	0.908	0.3236	-0.062
Mof_N 	N 	0.0168	0.8614	0.2973	-0.103
Mof_C 	C 	0.0177	0.8737	0.2349	0.12
Mof_C 	C 	0.9842	0.8363	0.1853	0.005
Mof_C 	C 	0.9515	0.8675	0.1362	-0.033
Mof_H 	H 	0.9502	0.913	0.135	0.057
Mof_C 	C 	0.9206	0.832	0.0889	-0.027
Mof_H 	H 	0.8982	0.8532	0.0554	0.052
Mof_C 	C 	0.9224	0.7653	0.0907	0.027
Mof_C 	C 	0.9552	0.7341	0.1398	-0.023
Mof_H 	H 	0.9564	0.6885	0.141	0.096
Mof_C 	C 	0.9861	0.7696	0.1871	-0.03
Mof_H 	H 	0.0084	0.7483	0.2206	0.065
Mof_C 	C 	0.8891	0.727	0.0397	0.285
Mof_O 	O 	0.9029	0.6691	0.0318	-0.247
Mof_N 	N 	0.8445	0.7548	0.0026	-0.245
Mof_H 	H 	0.834	0.7987	0.0086	0.145
Mof_Cl	Cl	0.8033	0.30759	0.85122	-0.322
Mof_N 	N 	0.9453	0.2779	0.0736	-0.066
Mof_N 	N 	0.9255	0.221	0.053	-0.09
Mof_N 	N 	0.908	0.3236	0.0526	-0.062
Mof_N 	N 	0.8614	0.2973	0.0168	-0.103
Mof_C 	C 	0.8737	0.2349	0.0177	0.12
Mof_C 	C 	0.8363	0.1853	0.9842	0.005
Mof_C 	C 	0.8675	0.1362	0.9515	-0.033
Mof_H 	H 	0.913	0.135	0.9502	0.057
Mof_C 	C 	0.832	0.0889	0.9206	-0.027
Mof_H 	H 	0.8532	0.0554	0.8982	0.052
Mof_C 	C 	0.7653	0.0907	0.9224	0.027
Mof_C 	C 	0.7341	0.1398	0.9552	-0.023
Mof_H 	H 	0.6885	0.141	0.9564	0.096
Mof_C 	C 	0.7696	0.1871	0.9861	-0.03
Mof_H 	H 	0.7483	0.2206	0.0084	0.065
Mof_C 	C 	0.727	0.0397	0.8891	0.285
Mof_O 	O 	0.6691	0.0318	0.9029	-0.247
Mof_N 	N 	0.7548	0.0026	0.8445	-0.245
Mof_H 	H 	0.7987	0.0086	0.834	0.145
Mof_Cl	Cl	0.1967	0.80759	0.64878	-0.322
Mof_N 	N 	0.0547	0.7779	0.4264	-0.065
Mof_N 	N 	0.0745	0.721	0.447	-0.09
Mof_N 	N 	0.092	0.8236	0.4474	-0.062
Mof_N 	N 	0.1386	0.7973	0.4832	-0.102
Mof_C 	C 	0.1263	0.7349	0.4823	0.12
Mof_C 	C 	0.1637	0.6853	0.5158	0.005
Mof_C 	C 	0.1325	0.6362	0.5485	-0.033
Mof_H 	H 	0.087	0.635	0.5498	0.057
Mof_C 	C 	0.168	0.5889	0.5794	-0.026
Mof_H 	H 	0.1468	0.5554	0.6018	0.052
Mof_C 	C 	0.2347	0.5907	0.5776	0.027
Mof_C 	C 	0.2659	0.6398	0.5448	-0.023
Mof_H 	H 	0.3115	0.641	0.5436	0.096
Mof_C 	C 	0.2304	0.6871	0.5139	-0.03
Mof_H 	H 	0.2517	0.7206	0.4916	0.065
Mof_C 	C 	0.273	0.5397	0.6109	0.286
Mof_O 	O 	0.3309	0.5318	0.5971	-0.247
Mof_N 	N 	0.2452	0.5026	0.6555	-0.245
Mof_H 	H 	0.2013	0.5086	0.666	0.145
Mof_Cl	Cl	0.6967	0.69241	0.35122	-0.322
Mof_N 	N 	0.5547	0.7221	0.5736	-0.065
Mof_N 	N 	0.5745	0.779	0.553	-0.09
Mof_N 	N 	0.592	0.6764	0.5526	-0.062
Mof_N 	N 	0.6386	0.7027	0.5168	-0.102
Mof_C 	C 	0.6263	0.7651	0.5177	0.12
Mof_C 	C 	0.6637	0.8147	0.4842	0.005
Mof_C 	C 	0.6325	0.8638	0.4515	-0.033
Mof_H 	H 	0.587	0.865	0.4502	0.057
Mof_C 	C 	0.668	0.9111	0.4206	-0.026
Mof_H 	H 	0.6468	0.9446	0.3982	0.052
Mof_C 	C 	0.7347	0.9093	0.4224	0.026
Mof_C 	C 	0.7659	0.8602	0.4552	-0.023
Mof_H 	H 	0.8115	0.859	0.4564	0.096
Mof_C 	C 	0.7304	0.8129	0.4861	-0.03
Mof_H 	H 	0.7517	0.7794	0.5084	0.065
Mof_C 	C 	0.773	0.9603	0.3891	0.287
Mof_O 	O 	0.8309	0.9682	0.4029	-0.247
Mof_N 	N 	0.7452	0.9974	0.3445	-0.245
Mof_H 	H 	0.7013	0.9914	0.334	0.145
Mof_Cl	Cl	0.3033	0.19241	0.14878	-0.322
Mof_N 	N 	0.4453	0.2221	0.9264	-0.065
Mof_N 	N 	0.4255	0.279	0.947	-0.09
Mof_N 	N 	0.408	0.1764	0.9474	-0.062
Mof_N 	N 	0.3614	0.2027	0.9832	-0.103
Mof_C 	C 	0.3737	0.2651	0.9823	0.119
Mof_C 	C 	0.3363	0.3147	0.0158	0.005
Mof_C 	C 	0.3675	0.3638	0.0485	-0.033
Mof_H 	H 	0.413	0.365	0.0498	0.057
Mof_C 	C 	0.332	0.4111	0.0794	-0.026
Mof_H 	H 	0.3532	0.4446	0.1018	0.052
Mof_C 	C 	0.2653	0.4093	0.0776	0.027
Mof_C 	C 	0.2341	0.3602	0.0448	-0.023
Mof_H 	H 	0.1885	0.359	0.0436	0.097
Mof_C 	C 	0.2696	0.3129	0.0139	-0.029
Mof_H 	H 	0.2483	0.2794	0.9916	0.064
Mof_C 	C 	0.227	0.4603	0.1109	0.286
Mof_O 	O 	0.1691	0.4682	0.0971	-0.247
Mof_N 	N 	0.2548	0.4974	0.1555	-0.245
Mof_H 	H 	0.2987	0.4914	0.166	0.145
Mof_Cl	Cl	0.80759	0.64878	0.1967	-0.322
Mof_N 	N 	0.7779	0.4264	0.0547	-0.065
Mof_N 	N 	0.721	0.447	0.0745	-0.09
Mof_N 	N 	0.8236	0.4474	0.092	-0.062
Mof_N 	N 	0.7973	0.4832	0.1386	-0.102
Mof_C 	C 	0.7349	0.4823	0.1263	0.12
Mof_C 	C 	0.6853	0.5158	0.1637	0.005
Mof_C 	C 	0.6362	0.5485	0.1325	-0.033
Mof_H 	H 	0.635	0.5498	0.087	0.057
Mof_C 	C 	0.5889	0.5794	0.168	-0.026
Mof_H 	H 	0.5554	0.6018	0.1468	0.052
Mof_C 	C 	0.5907	0.5776	0.2347	0.027
Mof_C 	C 	0.6398	0.5448	0.2659	-0.023
Mof_H 	H 	0.641	0.5436	0.3115	0.096
Mof_C 	C 	0.6871	0.5139	0.2304	-0.03
Mof_H 	H 	0.7206	0.4916	0.2517	0.065
Mof_C 	C 	0.5397	0.6109	0.273	0.286
Mof_O 	O 	0.5318	0.5971	0.3309	-0.247
Mof_N 	N 	0.5026	0.6555	0.2452	-0.245
Mof_H 	H 	0.5086	0.666	0.2013	0.145
Mof_Cl	Cl	0.30759	0.85122	0.8033	-0.322
Mof_N 	N 	0.2779	0.0736	0.9453	-0.066
Mof_N 	N 	0.221	0.053	0.9255	-0.09
Mof_N 	N 	0.3236	0.0526	0.908	-0.062
Mof_N 	N 	0.2973	0.0168	0.8614	-0.103
Mof_C 	C 	0.2349	0.0177	0.8737	0.12
Mof_C 	C 	0.1853	0.9842	0.8363	0.005
Mof_C 	C 	0.1362	0.9515	0.8675	-0.033
Mof_H 	H 	0.135	0.9502	0.913	0.057
Mof_C 	C 	0.0889	0.9206	0.832	-0.027
Mof_H 	H 	0.0554	0.8982	0.8532	0.052
Mof_C 	C 	0.0907	0.9224	0.7653	0.027
Mof_C 	C 	0.1398	0.9552	0.7341	-0.023
Mof_H 	H 	0.141	0.9564	0.6885	0.096
Mof_C 	C 	0.1871	0.9861	0.7696	-0.03
Mof_H 	H 	0.2206	0.0084	0.7483	0.065
Mof_C 	C 	0.0397	0.8891	0.727	0.285
Mof_O 	O 	0.0318	0.9029	0.6691	-0.247
Mof_N 	N 	0.0026	0.8445	0.7548	-0.245
Mof_H 	H 	0.0086	0.834	0.7987	0.145
Mof_Cl	Cl	0.19241	0.14878	0.3033	-0.322
Mof_N 	N 	0.2221	0.9264	0.4453	-0.065
Mof_N 	N 	0.279	0.947	0.4255	-0.09
Mof_N 	N 	0.1764	0.9474	0.408	-0.062
Mof_N 	N 	0.2027	0.9832	0.3614	-0.103
Mof_C 	C 	0.2651	0.9823	0.3737	0.119
Mof_C 	C 	0.3147	0.0158	0.3363	0.005
Mof_C 	C 	0.3638	0.0485	0.3675	-0.033
Mof_H 	H 	0.365	0.0498	0.413	0.057
Mof_C 	C 	0.4111	0.0794	0.332	-0.026
Mof_H 	H 	0.4446	0.1018	0.3532	0.052
Mof_C 	C 	0.4093	0.0776	0.2653	0.027
Mof_C 	C 	0.3602	0.0448	0.2341	-0.023
Mof_H 	H 	0.359	0.0436	0.1885	0.097
Mof_C 	C 	0.3129	0.0139	0.2696	-0.029
Mof_H 	H 	0.2794	0.9916	0.2483	0.064
Mof_C 	C 	0.4603	0.1109	0.227	0.286
Mof_O 	O 	0.4682	0.0971	0.1691	-0.247
Mof_N 	N 	0.4974	0.1555	0.2548	-0.245
Mof_H 	H 	0.4914	0.166	0.2987	0.145
Mof_Cl	Cl	0.69241	0.35122	0.6967	-0.322
Mof_N 	N 	0.7221	0.5736	0.5547	-0.065
Mof_N 	N 	0.779	0.553	0.5745	-0.09
Mof_N 	N 	0.6764	0.5526	0.592	-0.062
Mof_N 	N 	0.7027	0.5168	0.6386	-0.102
Mof_C 	C 	0.7651	0.5177	0.6263	0.12
Mof_C 	C 	0.8147	0.4842	0.6637	0.005
Mof_C 	C 	0.8638	0.4515	0.6325	-0.033
Mof_H 	H 	0.865	0.4502	0.587	0.057
Mof_C 	C 	0.9111	0.4206	0.668	-0.026
Mof_H 	H 	0.9446	0.3982	0.6468	0.052
Mof_C 	C 	0.9093	0.4224	0.7347	0.026
Mof_C 	C 	0.8602	0.4552	0.7659	-0.023
Mof_H 	H 	0.859	0.4564	0.8115	0.096
Mof_C 	C 	0.8129	0.4861	0.7304	-0.03
Mof_H 	H 	0.7794	0.5084	0.7517	0.065
Mof_C 	C 	0.9603	0.3891	0.773	0.287
Mof_O 	O 	0.9682	0.4029	0.8309	-0.247
Mof_N 	N 	0.9974	0.3445	0.7452	-0.245
Mof_H 	H 	0.9914	0.334	0.7013	0.145
Mof_Cd	Cd	0.04408	0.29408	0.125	0.455
Mof_Cd	Cd	0.45592	0.70592	0.625	0.455
Mof_Cd	Cd	0.95592	0.79408	0.375	0.455
Mof_Cd	Cd	0.54408	0.20592	0.875	0.455
Mof_Cd	Cd	0.125	0.04408	0.29408	0.455
Mof_Cd	Cd	0.625	0.45592	0.70592	0.455
Mof_Cd	Cd	0.375	0.95592	0.79408	0.455
Mof_Cd	Cd	0.875	0.54408	0.20592	0.455
Mof_Cd	Cd	0.29408	0.125	0.04408	0.455
Mof_Cd	Cd	0.70592	0.625	0.45592	0.455
Mof_Cd	Cd	0.79408	0.375	0.95592	0.455
Mof_Cd	Cd	0.20592	0.875	0.54408	0.455
Mof_Cd	Cd	0.93407	0.43407	0.06593	0.496
Mof_Cd	Cd	0.56593	0.56593	0.56593	0.496
Mof_Cd	Cd	0.06593	0.93407	0.43407	0.496
Mof_Cd	Cd	0.43407	0.06593	0.93407	0.496
Mof_Cd	Cd	0.18407	0.18407	0.18407	0.496
Mof_Cd	Cd	0.31593	0.81593	0.68407	0.496
Mof_Cd	Cd	0.68407	0.31593	0.81593	0.496
Mof_Cd	Cd	0.81593	0.68407	0.31593	0.496
_end
