data_functionalizedCrystal
_audit_creation_method	'EQeq! by Chris Wilmer'
_symmetry_space_group_name_H-M	'P1'
_symmetry_Int_Tables_number	1
_symmetry_cell_setting	triclinic
loop_
_symmetry_equiv_pos_as_xyz
  x,y,z
_cell_length_a	6.6229
_cell_length_b	10.1587
_cell_length_c	16.6783
_cell_angle_alpha	90
_cell_angle_beta	90
_cell_angle_gamma	93.941
loop_
_atom_site_label
_atom_site_type_symbol
_atom_site_fract_x
_atom_site_fract_y
_atom_site_fract_z
_atom_site_charge
Mof_Ag	Ag	0.64765	0.54659	0.44176	0.384
Mof_Ag	Ag	0.2232	0.56143	0.43858	0.451
Mof_Ag	Ag	0.78099	0.94036	0.79802	0.435
Mof_Ag	Ag	0.35471	0.95273	0.79396	0.506
Mof_Ag	Ag	0.40571	0.83591	0.44221	0.441
Mof_Ag	Ag	0.59127	0.66348	0.79549	0.567
Mof_Ag	Ag	0.9677	0.145	0.47266	0.492
Mof_Ag	Ag	0.5914	0.06928	0.66092	0.395
Mof_Ag	Ag	0.4101	0.43179	0.57511	0.204
Mof_Ag	Ag	0.35235	0.45341	0.94176	0.273
Mof_Ag	Ag	0.7768	0.43857	0.93858	0.338
Mof_Ag	Ag	0.21901	0.05964	0.29802	0.441
Mof_Ag	Ag	0.64529	0.04727	0.29396	0.508
Mof_Ag	Ag	0.59429	0.16409	0.94221	0.346
Mof_Ag	Ag	0.40873	0.33652	0.29549	0.567
Mof_Ag	Ag	0.0323	0.855	0.97266	0.363
Mof_Ag	Ag	0.4086	0.93072	0.16092	0.422
Mof_Ag	Ag	0.5899	0.56821	0.07511	0.317
Mof_P 	P 	0.9175	0.3326	0.3241	0.711
Mof_P 	P 	0.9167	0.8348	0.4156	0.498
Mof_P 	P 	0.0825	0.6674	0.8241	0.711
Mof_P 	P 	0.0833	0.1652	0.9156	0.438
Mof_C 	C 	0.546	0.8508	0.7147	-0.391
Mof_C 	C 	0.533	0.784	0.6514	0.048
Mof_C 	C 	0.481	0.7148	0.5833	0.032
Mof_C 	C 	0.429	0.6454	0.5259	-0.373
Mof_C 	C 	0.454	0.1492	0.2147	-0.405
Mof_C 	C 	0.467	0.216	0.1514	0.08
Mof_C 	C 	0.519	0.2852	0.0833	0.001
Mof_C 	C 	0.571	0.3546	0.0259	-0.247
Mof_N 	N 	0.0817	0.0613	0.6415	0.069
Mof_N 	N 	0.9183	0.9387	0.1415	0.064
Mof_O 	O 	0.23	0.0456	0.5975	-0.265
Mof_O 	O 	0.056	0.03	0.7073	-0.242
Mof_O 	O 	0.909	0.1101	0.6056	-0.314
Mof_O 	O 	0.948	0.1912	0.3377	-0.466
Mof_O 	O 	0.7296	0.3748	0.3546	-0.483
Mof_O 	O 	0.885	0.8457	0.5053	-0.308
Mof_O 	O 	0.101	0.9221	0.3986	-0.436
Mof_O 	O 	0.9391	0.6859	0.3976	-0.366
Mof_O 	O 	0.7268	0.8849	0.3727	-0.43
Mof_O 	O 	0.77	0.9544	0.0975	-0.232
Mof_O 	O 	0.944	0.97	0.2073	-0.248
Mof_O 	O 	0.091	0.8899	0.1056	-0.271
Mof_O 	O 	0.052	0.8088	0.8377	-0.454
Mof_O 	O 	0.2704	0.6252	0.8546	-0.474
Mof_O 	O 	0.115	0.1543	0.0053	-0.214
Mof_O 	O 	0.899	0.0779	0.8986	-0.427
Mof_O 	O 	0.0609	0.3141	0.8976	-0.347
Mof_O 	O 	0.2732	0.1151	0.8727	-0.416
Mof_F 	F 	0.8889	0.3339	0.2287	-0.506
Mof_F 	F 	0.1132	0.4229	0.3363	-0.644
Mof_F 	F 	0.1111	0.6661	0.7287	-0.506
Mof_F 	F 	0.8868	0.5771	0.8363	-0.637
_end
