data_functionalizedCrystal
_audit_creation_method	'EQeq! by Chris Wilmer'
_symmetry_space_group_name_H-M	'P1'
_symmetry_Int_Tables_number	1
_symmetry_cell_setting	triclinic
loop_
_symmetry_equiv_pos_as_xyz
  x,y,z
_cell_length_a	9.3669
_cell_length_b	14.1543
_cell_length_c	21.7897
_cell_angle_alpha	95.075
_cell_angle_beta	94.315
_cell_angle_gamma	104.723
loop_
_atom_site_label
_atom_site_type_symbol
_atom_site_fract_x
_atom_site_fract_y
_atom_site_fract_z
_atom_site_charge
Mof_Eu	Eu	0.43186	0.71214	0.90318	2.356
Mof_Eu	Eu	0.84927	0.06885	0.77928	2.245
Mof_Eu	Eu	0.23857	0.82914	0.61812	2.403
Mof_Eu	Eu	0.78852	0.38725	0.56013	2.263
Mof_Eu	Eu	0.07689	0.30851	0.93708	2.179
Mof_Eu	Eu	0.56814	0.28786	0.09682	2.356
Mof_Eu	Eu	0.15073	0.93115	0.22072	2.245
Mof_Eu	Eu	0.76143	0.17086	0.38188	2.403
Mof_Eu	Eu	0.21148	0.61275	0.43987	2.263
Mof_Eu	Eu	0.92311	0.69149	0.06292	2.179
Mof_H 	H 	0.5324	0.1099	0.9221	-0.009
Mof_H 	H 	0.1476	0.9811	0.9847	-0.01
Mof_H 	H 	0.4509	0.6603	0.6548	-0.004
Mof_H 	H 	0.6785	0.4993	0.7448	0.034
Mof_H 	H 	0.5049	0.2997	0.8673	0.005
Mof_H 	H 	0.2865	0.0922	0.7299	0.012
Mof_H 	H 	0.6878	0.8801	0.6243	0.006
Mof_H 	H 	0.7057	0.6847	0.4806	0.015
Mof_H 	H 	0.9916	0.3279	0.7865	-0.036
Mof_H 	H 	0.1387	0.6105	0.754	-0.011
Mof_H 	H 	0.4676	0.8901	0.0779	-0.009
Mof_H 	H 	0.8524	0.0189	0.0153	-0.01
Mof_H 	H 	0.5491	0.3397	0.3452	-0.004
Mof_H 	H 	0.3215	0.5007	0.2552	0.034
Mof_H 	H 	0.4951	0.7003	0.1327	0.005
Mof_H 	H 	0.7135	0.9078	0.2701	0.012
Mof_H 	H 	0.3122	0.1199	0.3757	0.006
Mof_H 	H 	0.2943	0.3153	0.5194	0.015
Mof_H 	H 	0.0084	0.6721	0.2135	-0.036
Mof_H 	H 	0.8613	0.3895	0.246	-0.011
Mof_C 	C 	0.4816	0.9607	0.9148	-0.102
Mof_C 	C 	0.4614	0.0541	0.9295	0.101
Mof_C 	C 	0.335	0.0624	0.9551	-0.226
Mof_C 	C 	0.2345	0.9779	0.9675	0.103
Mof_C 	C 	0.2658	0.8889	0.9539	-0.12
Mof_C 	C 	0.6128	0.9426	0.8823	0.46
Mof_C 	C 	0.3118	0.163	0.972	0.535
Mof_C 	C 	0.1653	0.7928	0.9668	0.458
Mof_C 	C 	0.4676	0.6827	0.7488	-0.11
Mof_C 	C 	0.4876	0.6407	0.691	0.067
Mof_C 	C 	0.5648	0.568	0.6891	-0.14
Mof_C 	C 	0.6236	0.5456	0.7446	0.041
Mof_C 	C 	0.6	0.5925	0.7996	-0.068
Mof_C 	C 	0.3761	0.7572	0.7567	0.496
Mof_C 	C 	0.5831	0.5173	0.6271	0.413
Mof_C 	C 	0.6579	0.5725	0.8632	0.359
Mof_C 	C 	0.629	0.2157	0.8282	-0.066
Mof_C 	C 	0.5014	0.2478	0.8374	0.068
Mof_C 	C 	0.3692	0.2006	0.801	-0.187
Mof_C 	C 	0.3719	0.1249	0.7555	0.08
Mof_C 	C 	0.5045	0.0992	0.7491	-0.105
Mof_C 	C 	0.7752	0.2521	0.8691	0.375
Mof_C 	C 	0.222	0.2199	0.813	0.513
Mof_C 	C 	0.5174	0.0137	0.7045	0.482
Mof_C 	C 	0.8916	0.861	0.6128	-0.127
Mof_C 	C 	0.7406	0.8464	0.6001	0.089
Mof_C 	C 	0.6704	0.7796	0.5497	-0.197
Mof_C 	C 	0.7515	0.7297	0.5145	0.071
Mof_C 	C 	0.9019	0.749	0.5312	-0.08
Mof_C 	C 	0.9822	0.9292	0.667	0.453
Mof_C 	C 	0.5039	0.7573	0.5348	0.543
Mof_C 	C 	0.004	0.7013	0.4982	0.36
Mof_C 	C 	0.9307	0.3565	0.7007	-0.132
Mof_C 	C 	0.9976	0.3773	0.7606	0.147
Mof_C 	C 	0.0745	0.4743	0.7815	-0.237
Mof_C 	C 	0.0858	0.5457	0.7415	0.128
Mof_C 	C 	0.0155	0.5173	0.6819	-0.125
Mof_C 	C 	0.8427	0.2549	0.673	0.469
Mof_C 	C 	0.146	0.499	0.8477	0.6
Mof_C 	C 	0.0206	0.5881	0.6325	0.477
Mof_C 	C 	0.5184	0.0393	0.0852	-0.102
Mof_C 	C 	0.5386	0.9459	0.0705	0.101
Mof_C 	C 	0.665	0.9376	0.0449	-0.226
Mof_C 	C 	0.7655	0.0221	0.0325	0.103
Mof_C 	C 	0.7342	0.1111	0.0461	-0.12
Mof_C 	C 	0.3872	0.0574	0.1177	0.46
Mof_C 	C 	0.6882	0.837	0.028	0.535
Mof_C 	C 	0.8347	0.2072	0.0332	0.458
Mof_C 	C 	0.5324	0.3173	0.2512	-0.11
Mof_C 	C 	0.5124	0.3593	0.309	0.067
Mof_C 	C 	0.4352	0.432	0.3109	-0.14
Mof_C 	C 	0.3764	0.4544	0.2554	0.041
Mof_C 	C 	0.4	0.4075	0.2004	-0.068
Mof_C 	C 	0.6239	0.2428	0.2433	0.496
Mof_C 	C 	0.4169	0.4827	0.3729	0.413
Mof_C 	C 	0.3421	0.4275	0.1368	0.359
Mof_C 	C 	0.371	0.7843	0.1718	-0.066
Mof_C 	C 	0.4986	0.7522	0.1626	0.068
Mof_C 	C 	0.6308	0.7994	0.199	-0.187
Mof_C 	C 	0.6281	0.8751	0.2445	0.08
Mof_C 	C 	0.4955	0.9008	0.2509	-0.105
Mof_C 	C 	0.2248	0.7479	0.1309	0.375
Mof_C 	C 	0.778	0.7801	0.187	0.513
Mof_C 	C 	0.4826	0.9863	0.2955	0.482
Mof_C 	C 	0.1084	0.139	0.3872	-0.127
Mof_C 	C 	0.2594	0.1536	0.3999	0.089
Mof_C 	C 	0.3296	0.2204	0.4503	-0.197
Mof_C 	C 	0.2485	0.2703	0.4855	0.071
Mof_C 	C 	0.0981	0.251	0.4688	-0.08
Mof_C 	C 	0.0178	0.0708	0.333	0.453
Mof_C 	C 	0.4961	0.2427	0.4652	0.543
Mof_C 	C 	0.996	0.2987	0.5018	0.36
Mof_C 	C 	0.0693	0.6435	0.2993	-0.132
Mof_C 	C 	0.0024	0.6227	0.2394	0.147
Mof_C 	C 	0.9255	0.5257	0.2185	-0.237
Mof_C 	C 	0.9142	0.4543	0.2585	0.128
Mof_C 	C 	0.9845	0.4827	0.3181	-0.125
Mof_C 	C 	0.1573	0.7451	0.327	0.469
Mof_C 	C 	0.854	0.501	0.1523	0.6
Mof_C 	C 	0.9794	0.4119	0.3675	0.477
Mof_N 	N 	0.3858	0.8798	0.9278	-0.188
Mof_N 	N 	0.5196	0.6588	0.802	-0.197
Mof_N 	N 	0.6282	0.1422	0.7857	-0.179
Mof_N 	N 	0.971	0.8132	0.5803	-0.215
Mof_N 	N 	0.9388	0.4255	0.6619	-0.187
Mof_N 	N 	0.6142	0.1202	0.0722	-0.188
Mof_N 	N 	0.4804	0.3412	0.198	-0.197
Mof_N 	N 	0.3718	0.8578	0.2143	-0.179
Mof_N 	N 	0.029	0.1868	0.4197	-0.215
Mof_N 	N 	0.0612	0.5745	0.3381	-0.187
Mof_O 	O 	0.6252	0.8559	0.8786	-0.532
Mof_O 	O 	0.6941	0.0142	0.8619	-0.547
Mof_O 	O 	0.4192	0.2262	0.0007	-0.61
Mof_O 	O 	0.1872	0.1749	0.9565	-0.567
Mof_O 	O 	0.0643	0.796	0.9999	-0.57
Mof_O 	O 	0.195	0.7162	0.9431	-0.552
Mof_O 	O 	0.3351	0.7697	0.81	-0.515
Mof_O 	O 	0.3464	0.798	0.712	-0.561
Mof_O 	O 	0.5318	0.5419	0.5797	-0.347
Mof_O 	O 	0.6501	0.4498	0.6298	-0.531
Mof_O 	O 	0.7476	0.5235	0.8677	-0.31
Mof_O 	O 	0.6076	0.6139	0.9082	-0.554
Mof_O 	O 	0.8794	0.2136	0.8553	-0.651
Mof_O 	O 	0.791	0.3147	0.9153	-0.425
Mof_O 	O 	0.2227	0.2851	0.8553	-0.57
Mof_O 	O 	0.1097	0.169	0.7802	-0.534
Mof_O 	O 	0.413	0.9795	0.6623	-0.548
Mof_O 	O 	0.6306	0.9844	0.7136	-0.537
Mof_O 	O 	0.1079	0.9172	0.6824	-0.555
Mof_O 	O 	0.9309	0.9943	0.6928	-0.544
Mof_O 	O 	0.4346	0.787	0.5762	-0.639
Mof_O 	O 	0.448	0.7112	0.4833	-0.582
Mof_O 	O 	0.956	0.6348	0.4543	-0.473
Mof_O 	O 	0.1426	0.7312	0.517	-0.682
Mof_O 	O 	0.7728	0.25	0.6203	-0.515
Mof_O 	O 	0.8452	0.1841	0.7024	-0.499
Mof_O 	O 	0.0897	0.4455	0.887	-0.645
Mof_O 	O 	0.2578	0.5704	0.8568	-0.623
Mof_O 	O 	0.0999	0.6734	0.6454	-0.557
Mof_O 	O 	0.9432	0.5528	0.5818	-0.573
Mof_O 	O 	0.3748	0.1441	0.1214	-0.532
Mof_O 	O 	0.3059	0.9858	0.1381	-0.547
Mof_O 	O 	0.5808	0.7738	0.9993	-0.61
Mof_O 	O 	0.8128	0.8251	0.0435	-0.567
Mof_O 	O 	0.9357	0.204	0.0001	-0.57
Mof_O 	O 	0.805	0.2838	0.0569	-0.552
Mof_O 	O 	0.6649	0.2303	0.19	-0.515
Mof_O 	O 	0.6536	0.202	0.288	-0.561
Mof_O 	O 	0.4682	0.4581	0.4203	-0.347
Mof_O 	O 	0.3499	0.5502	0.3702	-0.531
Mof_O 	O 	0.2524	0.4765	0.1323	-0.31
Mof_O 	O 	0.3924	0.3861	0.0918	-0.554
Mof_O 	O 	0.1206	0.7864	0.1447	-0.651
Mof_O 	O 	0.209	0.6853	0.0847	-0.425
Mof_O 	O 	0.7773	0.7149	0.1447	-0.57
Mof_O 	O 	0.8903	0.831	0.2198	-0.534
Mof_O 	O 	0.587	0.0205	0.3377	-0.548
Mof_O 	O 	0.3694	0.0156	0.2864	-0.537
Mof_O 	O 	0.8921	0.0828	0.3176	-0.555
Mof_O 	O 	0.0691	0.0057	0.3072	-0.544
Mof_O 	O 	0.5654	0.213	0.4238	-0.639
Mof_O 	O 	0.552	0.2888	0.5167	-0.582
Mof_O 	O 	0.044	0.3652	0.5457	-0.473
Mof_O 	O 	0.8574	0.2688	0.483	-0.682
Mof_O 	O 	0.2272	0.75	0.3797	-0.515
Mof_O 	O 	0.1548	0.8159	0.2976	-0.499
Mof_O 	O 	0.9103	0.5545	0.113	-0.645
Mof_O 	O 	0.7422	0.4296	0.1432	-0.623
Mof_O 	O 	0.9001	0.3266	0.3546	-0.557
Mof_O 	O 	0.0568	0.4472	0.4182	-0.573
_end
