data_functionalizedCrystal
_audit_creation_method	'EQeq! by Chris Wilmer'
_symmetry_space_group_name_H-M	'P1'
_symmetry_Int_Tables_number	1
_symmetry_cell_setting	triclinic
loop_
_symmetry_equiv_pos_as_xyz
  x,y,z
_cell_length_a	13.6883
_cell_length_b	24.972
_cell_length_c	18.2727
_cell_angle_alpha	101.097
_cell_angle_beta	90
_cell_angle_gamma	90
loop_
_atom_site_label
_atom_site_type_symbol
_atom_site_fract_x
_atom_site_fract_y
_atom_site_fract_z
_atom_site_charge
Mof_Zn	Zn	0.18535	0.34769	0.62818	1.214
Mof_Zn	Zn	0.89465	0.9616	0.77272	1.155
Mof_Zn	Zn	0.7873	0.33866	0.07078	1.164
Mof_Zn	Zn	0.68535	0.65231	0.87182	1.214
Mof_Zn	Zn	0.39465	0.0384	0.72728	1.155
Mof_Zn	Zn	0.2873	0.66134	0.42922	1.163
Mof_Zn	Zn	0.81465	0.65231	0.37182	1.213
Mof_Zn	Zn	0.10535	0.0384	0.22728	1.154
Mof_Zn	Zn	0.2127	0.66134	0.92922	1.163
Mof_Zn	Zn	0.31465	0.34769	0.12818	1.213
Mof_Zn	Zn	0.60535	0.9616	0.27272	1.155
Mof_Zn	Zn	0.7127	0.33866	0.57078	1.163
Mof_H 	H 	0.0195	0.1544	0.6138	0.131
Mof_H 	H 	0.8867	0.0244	0.4903	0.134
Mof_H 	H 	0.8876	0.1681	0.4227	0.132
Mof_H 	H 	0.1164	0.2238	0.5898	-0.009
Mof_H 	H 	0.9871	0.3477	0.53	0.026
Mof_H 	H 	0.8893	0.267	0.4805	0.005
Mof_H 	H 	0.8686	0.0035	0.6181	-0.031
Mof_H 	H 	0.0893	0.0318	0.7546	-0.003
Mof_H 	H 	0.1109	0.089	0.6632	0.015
Mof_H 	H 	0.7429	0.0088	0.4157	-0.05
Mof_H 	H 	0.7267	0.0636	0.2301	0.005
Mof_H 	H 	0.8486	0.1181	0.3075	0.019
Mof_H 	H 	0.5024	0.3171	0.3548	0.125
Mof_H 	H 	0.5415	0.4521	0.2691	0.137
Mof_H 	H 	0.4051	0.4618	0.4659	0.138
Mof_H 	H 	0.2832	0.405	0.5088	-0.016
Mof_H 	H 	0.3775	0.2719	0.5697	0.017
Mof_H 	H 	0.4905	0.2916	0.4761	-0.01
Mof_H 	H 	0.6374	0.4046	0.1872	-0.021
Mof_H 	H 	0.5786	0.2685	0.2576	0.017
Mof_H 	H 	0.6935	0.2491	0.155	-0.007
Mof_H 	H 	0.3238	0.5375	0.4221	-0.013
Mof_H 	H 	0.4934	0.6375	0.3422	-0.008
Mof_H 	H 	0.5737	0.549	0.3182	0.045
Mof_H 	H 	0.0957	0.526	0.7017	0.084
Mof_H 	H 	0.262	0.5494	0.6976	0.051
Mof_H 	H 	0.2573	0.541	0.6103	0.055
Mof_H 	H 	0.2468	0.6321	0.6603	0.053
Mof_H 	H 	0.1572	0.6219	0.7092	0.034
Mof_H 	H 	0.0929	0.6543	0.6141	0.064
Mof_H 	H 	0.9911	0.588	0.6349	0.048
Mof_H 	H 	0.9987	0.5784	0.5478	0.053
Mof_H 	H 	0.0997	0.5068	0.5447	0.063
Mof_H 	H 	0.0083	0.4977	0.5924	0.06
Mof_H 	H 	0.2084	0.2887	0.8379	0.09
Mof_H 	H 	0.2042	0.1828	0.7486	0.046
Mof_H 	H 	0.1127	0.2145	0.7864	0.03
Mof_H 	H 	0.1696	0.208	0.9041	0.047
Mof_H 	H 	0.1654	0.1492	0.855	0.051
Mof_H 	H 	0.311	0.1659	0.9244	0.058
Mof_H 	H 	0.4285	0.2244	0.8873	0.066
Mof_H 	H 	0.3364	0.2557	0.9248	0.054
Mof_H 	H 	0.3733	0.2315	0.7699	0.048
Mof_H 	H 	0.3757	0.2902	0.8196	0.034
Mof_H 	H 	0.5195	0.8456	0.8862	0.132
Mof_H 	H 	0.3867	0.9756	0.0097	0.134
Mof_H 	H 	0.3876	0.8319	0.0773	0.131
Mof_H 	H 	0.6164	0.7762	0.9102	-0.01
Mof_H 	H 	0.4871	0.6523	0.97	0.024
Mof_H 	H 	0.3893	0.733	0.0195	0.007
Mof_H 	H 	0.3686	0.9965	0.8819	-0.031
Mof_H 	H 	0.5893	0.9682	0.7454	-0.004
Mof_H 	H 	0.6109	0.911	0.8368	0.014
Mof_H 	H 	0.2429	0.9912	0.0843	-0.049
Mof_H 	H 	0.2267	0.9364	0.2699	0.005
Mof_H 	H 	0.3486	0.8819	0.1925	0.019
Mof_H 	H 	0.0024	0.6829	0.1452	0.127
Mof_H 	H 	0.0415	0.5479	0.2309	0.138
Mof_H 	H 	0.9051	0.5382	0.0341	0.139
Mof_H 	H 	0.7832	0.595	0.9912	-0.016
Mof_H 	H 	0.8775	0.7281	0.9303	0.017
Mof_H 	H 	0.9905	0.7084	0.0239	-0.011
Mof_H 	H 	0.1374	0.5954	0.3128	-0.022
Mof_H 	H 	0.0786	0.7315	0.2424	0.017
Mof_H 	H 	0.1935	0.7509	0.345	-0.007
Mof_H 	H 	0.8238	0.4625	0.0779	-0.013
Mof_H 	H 	0.9934	0.3625	0.1578	-0.008
Mof_H 	H 	0.0737	0.451	0.1818	0.045
Mof_H 	H 	0.5957	0.474	0.7983	0.084
Mof_H 	H 	0.762	0.4506	0.8024	0.051
Mof_H 	H 	0.7573	0.459	0.8897	0.055
Mof_H 	H 	0.7468	0.3679	0.8397	0.053
Mof_H 	H 	0.6572	0.3781	0.7908	0.034
Mof_H 	H 	0.5929	0.3457	0.8859	0.064
Mof_H 	H 	0.4911	0.412	0.8651	0.049
Mof_H 	H 	0.4987	0.4216	0.9522	0.054
Mof_H 	H 	0.5997	0.4932	0.9553	0.063
Mof_H 	H 	0.5083	0.5023	0.9076	0.059
Mof_H 	H 	0.7084	0.7113	0.6621	0.09
Mof_H 	H 	0.7042	0.8172	0.7514	0.046
Mof_H 	H 	0.6127	0.7855	0.7136	0.03
Mof_H 	H 	0.6696	0.792	0.5959	0.047
Mof_H 	H 	0.6654	0.8508	0.645	0.051
Mof_H 	H 	0.811	0.8341	0.5756	0.058
Mof_H 	H 	0.9285	0.7756	0.6127	0.065
Mof_H 	H 	0.8364	0.7443	0.5752	0.053
Mof_H 	H 	0.8733	0.7685	0.7301	0.047
Mof_H 	H 	0.8757	0.7098	0.6804	0.034
Mof_H 	H 	0.9805	0.8456	0.3862	0.131
Mof_H 	H 	0.1133	0.9756	0.5097	0.134
Mof_H 	H 	0.1124	0.8319	0.5773	0.132
Mof_H 	H 	0.8836	0.7762	0.4102	-0.009
Mof_H 	H 	0.0129	0.6523	0.47	0.026
Mof_H 	H 	0.1107	0.733	0.5195	0.005
Mof_H 	H 	0.1314	0.9965	0.3819	-0.031
Mof_H 	H 	0.9107	0.9682	0.2454	-0.003
Mof_H 	H 	0.8891	0.911	0.3368	0.015
Mof_H 	H 	0.2571	0.9912	0.5843	-0.05
Mof_H 	H 	0.2733	0.9364	0.7699	0.005
Mof_H 	H 	0.1514	0.8819	0.6925	0.019
Mof_H 	H 	0.4976	0.6829	0.6452	0.125
Mof_H 	H 	0.4585	0.5479	0.7309	0.137
Mof_H 	H 	0.5949	0.5382	0.5341	0.138
Mof_H 	H 	0.7168	0.595	0.4912	-0.016
Mof_H 	H 	0.6225	0.7281	0.4303	0.017
Mof_H 	H 	0.5095	0.7084	0.5239	-0.01
Mof_H 	H 	0.3626	0.5954	0.8128	-0.021
Mof_H 	H 	0.4214	0.7315	0.7424	0.017
Mof_H 	H 	0.3065	0.7509	0.845	-0.007
Mof_H 	H 	0.6762	0.4625	0.5779	-0.013
Mof_H 	H 	0.5066	0.3625	0.6578	-0.008
Mof_H 	H 	0.4263	0.451	0.6818	0.045
Mof_H 	H 	0.9043	0.474	0.2983	0.084
Mof_H 	H 	0.738	0.4506	0.3024	0.051
Mof_H 	H 	0.7427	0.459	0.3897	0.055
Mof_H 	H 	0.7532	0.3679	0.3397	0.053
Mof_H 	H 	0.8428	0.3781	0.2908	0.034
Mof_H 	H 	0.9071	0.3457	0.3859	0.064
Mof_H 	H 	0.0089	0.412	0.3651	0.048
Mof_H 	H 	0.0013	0.4216	0.4522	0.053
Mof_H 	H 	0.9003	0.4932	0.4553	0.063
Mof_H 	H 	0.9917	0.5023	0.4076	0.06
Mof_H 	H 	0.7916	0.7113	0.1621	0.09
Mof_H 	H 	0.7958	0.8172	0.2514	0.046
Mof_H 	H 	0.8873	0.7855	0.2136	0.03
Mof_H 	H 	0.8304	0.792	0.0959	0.047
Mof_H 	H 	0.8346	0.8508	0.145	0.051
Mof_H 	H 	0.689	0.8341	0.0756	0.058
Mof_H 	H 	0.5715	0.7756	0.1127	0.066
Mof_H 	H 	0.6636	0.7443	0.0752	0.054
Mof_H 	H 	0.6267	0.7685	0.2301	0.048
Mof_H 	H 	0.6243	0.7098	0.1804	0.034
Mof_H 	H 	0.4805	0.1544	0.1138	0.132
Mof_H 	H 	0.6133	0.0244	0.9903	0.134
Mof_H 	H 	0.6124	0.1681	0.9227	0.131
Mof_H 	H 	0.3836	0.2238	0.0898	-0.01
Mof_H 	H 	0.5129	0.3477	0.03	0.024
Mof_H 	H 	0.6107	0.267	0.9805	0.007
Mof_H 	H 	0.6314	0.0035	0.1181	-0.031
Mof_H 	H 	0.4107	0.0318	0.2546	-0.004
Mof_H 	H 	0.3891	0.089	0.1632	0.014
Mof_H 	H 	0.7571	0.0088	0.9157	-0.049
Mof_H 	H 	0.7733	0.0636	0.7301	0.005
Mof_H 	H 	0.6514	0.1181	0.8075	0.019
Mof_H 	H 	0.9976	0.3171	0.8548	0.127
Mof_H 	H 	0.9585	0.4521	0.7691	0.138
Mof_H 	H 	0.0949	0.4618	0.9659	0.139
Mof_H 	H 	0.2168	0.405	0.0088	-0.016
Mof_H 	H 	0.1225	0.2719	0.0697	0.017
Mof_H 	H 	0.0095	0.2916	0.9761	-0.011
Mof_H 	H 	0.8626	0.4046	0.6872	-0.022
Mof_H 	H 	0.9214	0.2685	0.7576	0.017
Mof_H 	H 	0.8065	0.2491	0.655	-0.007
Mof_H 	H 	0.1762	0.5375	0.9221	-0.013
Mof_H 	H 	0.0066	0.6375	0.8422	-0.008
Mof_H 	H 	0.9263	0.549	0.8182	0.045
Mof_H 	H 	0.4043	0.526	0.2017	0.084
Mof_H 	H 	0.238	0.5494	0.1976	0.051
Mof_H 	H 	0.2427	0.541	0.1103	0.055
Mof_H 	H 	0.2532	0.6321	0.1603	0.053
Mof_H 	H 	0.3428	0.6219	0.2092	0.034
Mof_H 	H 	0.4071	0.6543	0.1141	0.064
Mof_H 	H 	0.5089	0.588	0.1349	0.049
Mof_H 	H 	0.5013	0.5784	0.0478	0.054
Mof_H 	H 	0.4003	0.5068	0.0447	0.063
Mof_H 	H 	0.4917	0.4977	0.0924	0.059
Mof_H 	H 	0.2916	0.2887	0.3379	0.09
Mof_H 	H 	0.2958	0.1828	0.2486	0.046
Mof_H 	H 	0.3873	0.2145	0.2864	0.03
Mof_H 	H 	0.3304	0.208	0.4041	0.047
Mof_H 	H 	0.3346	0.1492	0.355	0.051
Mof_H 	H 	0.189	0.1659	0.4244	0.058
Mof_H 	H 	0.0715	0.2244	0.3873	0.065
Mof_H 	H 	0.1636	0.2557	0.4248	0.053
Mof_H 	H 	0.1267	0.2315	0.2699	0.047
Mof_H 	H 	0.1243	0.2902	0.3196	0.034
Mof_C 	C 	0.961	0.16958	0.5193	0.224
Mof_C 	C 	0.9848	0.13886	0.5712	-0.295
Mof_C 	C 	0.9573	0.08511	0.5603	0.226
Mof_C 	C 	0.9039	0.06111	0.4982	-0.295
Mof_C 	C 	0.8771	0.09353	0.4487	0.225
Mof_C 	C 	0.9054	0.14718	0.4575	-0.293
Mof_C 	C 	0.0722	0.24488	0.5689	0.099
Mof_C 	C 	0.0011	0.31236	0.5358	-0.01
Mof_C 	C 	0.9464	0.26805	0.5084	-0
Mof_C 	C 	0.9264	0.01749	0.6408	0.115
Mof_C 	C 	0.0471	0.0333	0.7151	-0.014
Mof_C 	C 	0.0596	0.0648	0.665	0.004
Mof_C 	C 	0.753	0.02932	0.379	0.102
Mof_C 	C 	0.745	0.0595	0.2777	-0.015
Mof_C 	C 	0.8124	0.0898	0.3202	-0.005
Mof_C 	C 	0.4437	0.38555	0.4179	0.227
Mof_C 	C 	0.494	0.35441	0.3578	-0.28
Mof_C 	C 	0.5308	0.37967	0.3033	0.225
Mof_C 	C 	0.5177	0.43518	0.3066	-0.286
Mof_C 	C 	0.4682	0.46476	0.3671	0.232
Mof_C 	C 	0.4342	0.44079	0.424	-0.292
Mof_C 	C 	0.3206	0.37461	0.5127	0.098
Mof_C 	C 	0.3731	0.3014	0.5457	-0.014
Mof_C 	C 	0.4357	0.31195	0.494	0.001
Mof_C 	C 	0.6379	0.3682	0.1922	0.108
Mof_C 	C 	0.6045	0.29358	0.2313	0.004
Mof_C 	C 	0.6681	0.2834	0.1749	-0.006
Mof_C 	C 	0.3762	0.55151	0.3994	0.11
Mof_C 	C 	0.4693	0.60589	0.3554	0.007
Mof_C 	C 	0.514	0.55722	0.3421	-0.008
Mof_C 	C 	0.1321	0.51372	0.6553	-0.158
Mof_C 	C 	0.2199	0.5522	0.6558	-0.059
Mof_C 	C 	0.1892	0.6097	0.6616	-0.066
Mof_C 	C 	0.1208	0.6177	0.5998	-0.124
Mof_C 	C 	0.0349	0.5769	0.593	-0.072
Mof_C 	C 	0.0659	0.5201	0.5913	-0.057
Mof_C 	C 	0.166	0.4553	0.6547	0.42
Mof_C 	C 	0.177	0.616	0.5257	0.354
Mof_C 	C 	0.2361	0.26199	0.7968	-0.154
Mof_C 	C 	0.182	0.2085	0.7922	-0.041
Mof_C 	C 	0.1982	0.1842	0.8612	-0.089
Mof_C 	C 	0.3056	0.1766	0.8757	-0.099
Mof_C 	C 	0.3592	0.2303	0.8811	-0.094
Mof_C 	C 	0.3436	0.2549	0.8126	-0.041
Mof_C 	C 	0.2266	0.284	0.7259	0.338
Mof_C 	C 	0.3547	0.1306	0.8172	0.334
Mof_C 	C 	0.461	0.83042	0.9807	0.223
Mof_C 	C 	0.4848	0.86114	0.9288	-0.297
Mof_C 	C 	0.4573	0.91489	0.9397	0.225
Mof_C 	C 	0.4039	0.93889	0.0018	-0.293
Mof_C 	C 	0.3771	0.90647	0.0513	0.224
Mof_C 	C 	0.4054	0.85282	0.0425	-0.291
Mof_C 	C 	0.5722	0.75512	0.9311	0.1
Mof_C 	C 	0.5011	0.68764	0.9642	-0.006
Mof_C 	C 	0.4464	0.73195	0.9916	-0.005
Mof_C 	C 	0.4264	0.98251	0.8592	0.114
Mof_C 	C 	0.5471	0.9667	0.7849	-0.012
Mof_C 	C 	0.5596	0.9352	0.835	0.005
Mof_C 	C 	0.253	0.97068	0.121	0.102
Mof_C 	C 	0.245	0.9405	0.2223	-0.015
Mof_C 	C 	0.3124	0.9102	0.1798	-0.005
Mof_C 	C 	0.9437	0.61445	0.0821	0.228
Mof_C 	C 	0.994	0.64559	0.1422	-0.283
Mof_C 	C 	0.0308	0.62033	0.1967	0.227
Mof_C 	C 	0.0177	0.56482	0.1934	-0.287
Mof_C 	C 	0.9682	0.53524	0.1329	0.232
Mof_C 	C 	0.9342	0.55921	0.076	-0.292
Mof_C 	C 	0.8206	0.62539	0.9873	0.097
Mof_C 	C 	0.8731	0.6986	0.9543	-0.015
Mof_C 	C 	0.9357	0.68805	0.006	0.002
Mof_C 	C 	0.1379	0.6318	0.3078	0.109
Mof_C 	C 	0.1045	0.70642	0.2687	0.004
Mof_C 	C 	0.1681	0.7166	0.3251	-0.006
Mof_C 	C 	0.8762	0.44849	0.1006	0.11
Mof_C 	C 	0.9693	0.39411	0.1446	0.007
Mof_C 	C 	0.014	0.44278	0.1579	-0.008
Mof_C 	C 	0.6321	0.48628	0.8447	-0.159
Mof_C 	C 	0.7199	0.4478	0.8442	-0.058
Mof_C 	C 	0.6892	0.3903	0.8384	-0.067
Mof_C 	C 	0.6208	0.3823	0.9002	-0.123
Mof_C 	C 	0.5349	0.4231	0.907	-0.074
Mof_C 	C 	0.5659	0.4799	0.9087	-0.055
Mof_C 	C 	0.666	0.5447	0.8453	0.42
Mof_C 	C 	0.677	0.384	0.9743	0.354
Mof_C 	C 	0.7361	0.73801	0.7032	-0.154
Mof_C 	C 	0.682	0.7915	0.7078	-0.041
Mof_C 	C 	0.6982	0.8158	0.6388	-0.089
Mof_C 	C 	0.8056	0.8234	0.6243	-0.099
Mof_C 	C 	0.8592	0.7697	0.6189	-0.094
Mof_C 	C 	0.8436	0.7451	0.6874	-0.041
Mof_C 	C 	0.7266	0.716	0.7741	0.338
Mof_C 	C 	0.8547	0.8694	0.6828	0.334
Mof_C 	C 	0.039	0.83042	0.4807	0.224
Mof_C 	C 	0.0152	0.86114	0.4288	-0.295
Mof_C 	C 	0.0427	0.91489	0.4397	0.226
Mof_C 	C 	0.0961	0.93889	0.5018	-0.295
Mof_C 	C 	0.1229	0.90647	0.5513	0.225
Mof_C 	C 	0.0946	0.85282	0.5425	-0.293
Mof_C 	C 	0.9278	0.75512	0.4311	0.099
Mof_C 	C 	0.9989	0.68764	0.4642	-0.01
Mof_C 	C 	0.0536	0.73195	0.4916	-0
Mof_C 	C 	0.0736	0.98251	0.3592	0.115
Mof_C 	C 	0.9529	0.9667	0.2849	-0.014
Mof_C 	C 	0.9404	0.9352	0.335	0.004
Mof_C 	C 	0.247	0.97068	0.621	0.102
Mof_C 	C 	0.255	0.9405	0.7223	-0.015
Mof_C 	C 	0.1876	0.9102	0.6798	-0.005
Mof_C 	C 	0.5563	0.61445	0.5821	0.227
Mof_C 	C 	0.506	0.64559	0.6422	-0.28
Mof_C 	C 	0.4692	0.62033	0.6967	0.225
Mof_C 	C 	0.4823	0.56482	0.6934	-0.286
Mof_C 	C 	0.5318	0.53524	0.6329	0.232
Mof_C 	C 	0.5658	0.55921	0.576	-0.292
Mof_C 	C 	0.6794	0.62539	0.4873	0.098
Mof_C 	C 	0.6269	0.6986	0.4543	-0.014
Mof_C 	C 	0.5643	0.68805	0.506	0.001
Mof_C 	C 	0.3621	0.6318	0.8078	0.108
Mof_C 	C 	0.3955	0.70642	0.7687	0.004
Mof_C 	C 	0.3319	0.7166	0.8251	-0.006
Mof_C 	C 	0.6238	0.44849	0.6006	0.11
Mof_C 	C 	0.5307	0.39411	0.6446	0.007
Mof_C 	C 	0.486	0.44278	0.6579	-0.008
Mof_C 	C 	0.8679	0.48628	0.3447	-0.158
Mof_C 	C 	0.7801	0.4478	0.3442	-0.059
Mof_C 	C 	0.8108	0.3903	0.3384	-0.066
Mof_C 	C 	0.8792	0.3823	0.4002	-0.124
Mof_C 	C 	0.9651	0.4231	0.407	-0.072
Mof_C 	C 	0.9341	0.4799	0.4087	-0.057
Mof_C 	C 	0.834	0.5447	0.3453	0.42
Mof_C 	C 	0.823	0.384	0.4743	0.354
Mof_C 	C 	0.7639	0.73801	0.2032	-0.154
Mof_C 	C 	0.818	0.7915	0.2078	-0.041
Mof_C 	C 	0.8018	0.8158	0.1388	-0.089
Mof_C 	C 	0.6944	0.8234	0.1243	-0.099
Mof_C 	C 	0.6408	0.7697	0.1189	-0.094
Mof_C 	C 	0.6564	0.7451	0.1874	-0.041
Mof_C 	C 	0.7734	0.716	0.2741	0.338
Mof_C 	C 	0.6453	0.8694	0.1828	0.334
Mof_C 	C 	0.539	0.16958	0.0193	0.223
Mof_C 	C 	0.5152	0.13886	0.0712	-0.297
Mof_C 	C 	0.5427	0.08511	0.0603	0.225
Mof_C 	C 	0.5961	0.06111	0.9982	-0.293
Mof_C 	C 	0.6229	0.09353	0.9487	0.224
Mof_C 	C 	0.5946	0.14718	0.9575	-0.291
Mof_C 	C 	0.4278	0.24488	0.0689	0.1
Mof_C 	C 	0.4989	0.31236	0.0358	-0.006
Mof_C 	C 	0.5536	0.26805	0.0084	-0.005
Mof_C 	C 	0.5736	0.01749	0.1408	0.114
Mof_C 	C 	0.4529	0.0333	0.2151	-0.012
Mof_C 	C 	0.4404	0.0648	0.165	0.005
Mof_C 	C 	0.747	0.02932	0.879	0.102
Mof_C 	C 	0.755	0.0595	0.7777	-0.015
Mof_C 	C 	0.6876	0.0898	0.8202	-0.005
Mof_C 	C 	0.0563	0.38555	0.9179	0.228
Mof_C 	C 	0.006	0.35441	0.8578	-0.283
Mof_C 	C 	0.9692	0.37967	0.8033	0.227
Mof_C 	C 	0.9823	0.43518	0.8066	-0.287
Mof_C 	C 	0.0318	0.46476	0.8671	0.232
Mof_C 	C 	0.0658	0.44079	0.924	-0.292
Mof_C 	C 	0.1794	0.37461	0.0127	0.097
Mof_C 	C 	0.1269	0.3014	0.0457	-0.015
Mof_C 	C 	0.0643	0.31195	0.994	0.002
Mof_C 	C 	0.8621	0.3682	0.6922	0.109
Mof_C 	C 	0.8955	0.29358	0.7313	0.004
Mof_C 	C 	0.8319	0.2834	0.6749	-0.006
Mof_C 	C 	0.1238	0.55151	0.8994	0.11
Mof_C 	C 	0.0307	0.60589	0.8554	0.007
Mof_C 	C 	0.986	0.55722	0.8421	-0.008
Mof_C 	C 	0.3679	0.51372	0.1553	-0.159
Mof_C 	C 	0.2801	0.5522	0.1558	-0.058
Mof_C 	C 	0.3108	0.6097	0.1616	-0.067
Mof_C 	C 	0.3792	0.6177	0.0998	-0.123
Mof_C 	C 	0.4651	0.5769	0.093	-0.074
Mof_C 	C 	0.4341	0.5201	0.0913	-0.055
Mof_C 	C 	0.334	0.4553	0.1547	0.42
Mof_C 	C 	0.323	0.616	0.0257	0.354
Mof_C 	C 	0.2639	0.26199	0.2968	-0.154
Mof_C 	C 	0.318	0.2085	0.2922	-0.041
Mof_C 	C 	0.3018	0.1842	0.3612	-0.089
Mof_C 	C 	0.1944	0.1766	0.3757	-0.099
Mof_C 	C 	0.1408	0.2303	0.3811	-0.094
Mof_C 	C 	0.1564	0.2549	0.3126	-0.041
Mof_C 	C 	0.2734	0.284	0.2259	0.338
Mof_C 	C 	0.1453	0.1306	0.3172	0.334
Mof_N 	N 	0.0802	0.2977	0.5735	-0.255
Mof_N 	N 	0.9924	0.22495	0.5303	-0.164
Mof_N 	N 	0.963	0.00312	0.7002	-0.274
Mof_N 	N 	0.9818	0.05492	0.6163	-0.167
Mof_N 	N 	0.7068	0.02113	0.3158	-0.28
Mof_N 	N 	0.8177	0.07113	0.3853	-0.164
Mof_N 	N 	0.3012	0.34062	0.558	-0.259
Mof_N 	N 	0.4033	0.35885	0.4722	-0.164
Mof_N 	N 	0.6903	0.33025	0.1505	-0.289
Mof_N 	N 	0.5848	0.34855	0.2429	-0.166
Mof_N 	N 	0.3831	0.60189	0.3915	-0.29
Mof_N 	N 	0.4546	0.52194	0.3705	-0.16
Mof_N 	N 	0.5802	0.7023	0.9265	-0.255
Mof_N 	N 	0.4924	0.77505	0.9697	-0.165
Mof_N 	N 	0.463	0.99688	0.7998	-0.276
Mof_N 	N 	0.4818	0.94508	0.8837	-0.168
Mof_N 	N 	0.2068	0.97887	0.1842	-0.279
Mof_N 	N 	0.3177	0.92887	0.1147	-0.164
Mof_N 	N 	0.8012	0.65938	0.942	-0.259
Mof_N 	N 	0.9033	0.64115	0.0278	-0.164
Mof_N 	N 	0.1903	0.66975	0.3495	-0.289
Mof_N 	N 	0.0848	0.65145	0.2571	-0.166
Mof_N 	N 	0.8831	0.39811	0.1085	-0.29
Mof_N 	N 	0.9546	0.47806	0.1295	-0.16
Mof_N 	N 	0.9198	0.7023	0.4265	-0.255
Mof_N 	N 	0.0076	0.77505	0.4697	-0.164
Mof_N 	N 	0.037	0.99688	0.2998	-0.274
Mof_N 	N 	0.0182	0.94508	0.3837	-0.167
Mof_N 	N 	0.2932	0.97887	0.6842	-0.28
Mof_N 	N 	0.1823	0.92887	0.6147	-0.164
Mof_N 	N 	0.6988	0.65938	0.442	-0.259
Mof_N 	N 	0.5967	0.64115	0.5278	-0.164
Mof_N 	N 	0.3097	0.66975	0.8495	-0.289
Mof_N 	N 	0.4152	0.65145	0.7571	-0.166
Mof_N 	N 	0.6169	0.39811	0.6085	-0.29
Mof_N 	N 	0.5454	0.47806	0.6295	-0.16
Mof_N 	N 	0.4198	0.2977	0.0735	-0.255
Mof_N 	N 	0.5076	0.22495	0.0303	-0.165
Mof_N 	N 	0.537	0.00312	0.2002	-0.276
Mof_N 	N 	0.5182	0.05492	0.1163	-0.168
Mof_N 	N 	0.7932	0.02113	0.8158	-0.279
Mof_N 	N 	0.6823	0.07113	0.8853	-0.164
Mof_N 	N 	0.1988	0.34062	0.058	-0.259
Mof_N 	N 	0.0967	0.35885	0.9722	-0.164
Mof_N 	N 	0.8097	0.33025	0.6505	-0.289
Mof_N 	N 	0.9152	0.34855	0.7429	-0.166
Mof_N 	N 	0.1169	0.60189	0.8915	-0.29
Mof_N 	N 	0.0454	0.52194	0.8705	-0.16
Mof_O 	O 	0.1224	0.41809	0.6249	-0.508
Mof_O 	O 	0.246	0.44823	0.6859	-0.35
Mof_O 	O 	0.2347	0.6546	0.5273	-0.502
Mof_O 	O 	0.1632	0.5801	0.4699	-0.333
Mof_O 	O 	0.1955	0.33191	0.72912	-0.452
Mof_O 	O 	0.2496	0.25491	0.6651	-0.348
Mof_O 	O 	0.4426	0.13575	0.7985	-0.371
Mof_O 	O 	0.3063	0.08995	0.7939	-0.486
Mof_O 	O 	0.6224	0.58191	0.8751	-0.508
Mof_O 	O 	0.746	0.55177	0.8141	-0.35
Mof_O 	O 	0.7347	0.3454	0.9727	-0.501
Mof_O 	O 	0.6632	0.4199	0.0301	-0.333
Mof_O 	O 	0.6955	0.66809	0.77088	-0.451
Mof_O 	O 	0.7496	0.74509	0.8349	-0.348
Mof_O 	O 	0.9426	0.86425	0.7015	-0.372
Mof_O 	O 	0.8063	0.91005	0.7061	-0.487
Mof_O 	O 	0.8776	0.58191	0.3751	-0.508
Mof_O 	O 	0.754	0.55177	0.3141	-0.35
Mof_O 	O 	0.7653	0.3454	0.4727	-0.502
Mof_O 	O 	0.8368	0.4199	0.5301	-0.333
Mof_O 	O 	0.8045	0.66809	0.27088	-0.452
Mof_O 	O 	0.7504	0.74509	0.3349	-0.348
Mof_O 	O 	0.5574	0.86425	0.2015	-0.371
Mof_O 	O 	0.6937	0.91005	0.2061	-0.486
Mof_O 	O 	0.3776	0.41809	0.1249	-0.508
Mof_O 	O 	0.254	0.44823	0.1859	-0.35
Mof_O 	O 	0.2653	0.6546	0.0273	-0.501
Mof_O 	O 	0.3368	0.5801	0.9699	-0.333
Mof_O 	O 	0.3045	0.33191	0.22912	-0.451
Mof_O 	O 	0.2504	0.25491	0.1651	-0.348
Mof_O 	O 	0.0574	0.13575	0.2985	-0.372
Mof_O 	O 	0.1937	0.08995	0.2939	-0.487
_end
