data_functionalizedCrystal
_audit_creation_method	'EQeq! by Chris Wilmer'
_symmetry_space_group_name_H-M	'P1'
_symmetry_Int_Tables_number	1
_symmetry_cell_setting	triclinic
loop_
_symmetry_equiv_pos_as_xyz
  x,y,z
_cell_length_a	12.335
_cell_length_b	12.4965
_cell_length_c	18.1858
_cell_angle_alpha	80.3646
_cell_angle_beta	70.1758
_cell_angle_gamma	60.4266
loop_
_atom_site_label
_atom_site_type_symbol
_atom_site_fract_x
_atom_site_fract_y
_atom_site_fract_z
_atom_site_charge
Mof_Zn	Zn	0.625	0.25	0.75	1.143
Mof_Zn	Zn	0.375	0.75	0.25	1.143
Mof_H 	H 	0.4066	0.3092	0.903	0.002
Mof_H 	H 	0.3177	0.62	0.0012	0.041
Mof_H 	H 	0.4764	0.6412	0.8924	0.044
Mof_H 	H 	0.5955	0.4954	0.7956	-0.018
Mof_H 	H 	0.2792	0.3606	0.049	0.055
Mof_H 	H 	0.1975	0.5052	0.0668	0.052
Mof_H 	H 	0.0929	0.3322	0.0762	0.041
Mof_H 	H 	0.0029	0.4732	0.1034	0.043
Mof_H 	H 	0.019	0.6322	0.0154	0.042
Mof_H 	H 	0.119	0.6004	0.9286	0.041
Mof_H 	H 	0.6904	0.1908	0.903	0.002
Mof_H 	H 	0.6811	0.88	0.0012	0.039
Mof_H 	H 	0.6312	0.8588	0.8924	0.044
Mof_H 	H 	0.6089	0.0046	0.7956	-0.018
Mof_H 	H 	0.6718	0.1394	0.049	0.054
Mof_H 	H 	0.7357	0.9948	0.0668	0.05
Mof_H 	H 	0.8309	0.1678	0.0762	0.041
Mof_H 	H 	0.8937	0.0268	0.1034	0.043
Mof_H 	H 	0.9656	0.8678	0.0154	0.041
Mof_H 	H 	0.9524	0.8996	0.9286	0.04
Mof_H 	H 	0.7842	0.3092	0.597	0.003
Mof_H 	H 	0.5623	0.62	0.4988	0.041
Mof_H 	H 	0.3824	0.6412	0.6076	0.044
Mof_H 	H 	0.4091	0.4954	0.7044	-0.017
Mof_H 	H 	0.8602	0.3606	0.451	0.055
Mof_H 	H 	0.7973	0.5052	0.4332	0.052
Mof_H 	H 	0.0749	0.3322	0.4238	0.041
Mof_H 	H 	0.0239	0.4732	0.3966	0.043
Mof_H 	H 	0.8488	0.6322	0.4846	0.042
Mof_H 	H 	0.7806	0.6004	0.5714	0.041
Mof_H 	H 	0.6188	0.1908	0.597	0.003
Mof_H 	H 	0.9389	0.88	0.4988	0.041
Mof_H 	H 	0.01	0.8588	0.6076	0.044
Mof_H 	H 	0.8865	0.0046	0.7044	-0.017
Mof_H 	H 	0.6888	0.1394	0.451	0.055
Mof_H 	H 	0.7695	0.9948	0.4332	0.052
Mof_H 	H 	0.5013	0.1678	0.4238	0.041
Mof_H 	H 	0.5795	0.0268	0.3966	0.043
Mof_H 	H 	0.6666	0.8678	0.4846	0.042
Mof_H 	H 	0.648	0.8996	0.5714	0.041
Mof_H 	H 	0.5934	0.6908	0.097	0.002
Mof_H 	H 	0.6823	0.38	0.9988	0.041
Mof_H 	H 	0.5236	0.3588	0.1076	0.044
Mof_H 	H 	0.4045	0.5046	0.2044	-0.018
Mof_H 	H 	0.7208	0.6394	0.951	0.055
Mof_H 	H 	0.8025	0.4948	0.9332	0.052
Mof_H 	H 	0.9071	0.6678	0.9238	0.041
Mof_H 	H 	0.9971	0.5268	0.8966	0.043
Mof_H 	H 	0.981	0.3678	0.9846	0.042
Mof_H 	H 	0.881	0.3996	0.0714	0.041
Mof_H 	H 	0.3096	0.8092	0.097	0.002
Mof_H 	H 	0.3189	0.12	0.9988	0.039
Mof_H 	H 	0.3688	0.1412	0.1076	0.044
Mof_H 	H 	0.3911	0.9954	0.2044	-0.018
Mof_H 	H 	0.3282	0.8606	0.951	0.054
Mof_H 	H 	0.2643	0.0052	0.9332	0.05
Mof_H 	H 	0.1691	0.8322	0.9238	0.041
Mof_H 	H 	0.1063	0.9732	0.8966	0.043
Mof_H 	H 	0.0344	0.1322	0.9846	0.041
Mof_H 	H 	0.0476	0.1004	0.0714	0.04
Mof_H 	H 	0.2158	0.6908	0.403	0.003
Mof_H 	H 	0.4377	0.38	0.5012	0.041
Mof_H 	H 	0.6176	0.3588	0.3924	0.044
Mof_H 	H 	0.5909	0.5046	0.2956	-0.017
Mof_H 	H 	0.1398	0.6394	0.549	0.055
Mof_H 	H 	0.2027	0.4948	0.5668	0.052
Mof_H 	H 	0.9251	0.6678	0.5762	0.041
Mof_H 	H 	0.9761	0.5268	0.6034	0.043
Mof_H 	H 	0.1512	0.3678	0.5154	0.042
Mof_H 	H 	0.2194	0.3996	0.4286	0.041
Mof_H 	H 	0.3812	0.8092	0.403	0.003
Mof_H 	H 	0.0611	0.12	0.5012	0.041
Mof_H 	H 	0.99	0.1412	0.3924	0.044
Mof_H 	H 	0.1135	0.9954	0.2956	-0.017
Mof_H 	H 	0.3112	0.8606	0.549	0.055
Mof_H 	H 	0.2305	0.0052	0.5668	0.052
Mof_H 	H 	0.4987	0.8322	0.5762	0.041
Mof_H 	H 	0.4205	0.9732	0.6034	0.043
Mof_H 	H 	0.3334	0.1322	0.5154	0.042
Mof_H 	H 	0.352	0.1004	0.4286	0.041
Mof_C 	C 	0.41952	0.3786	0.90116	-0.008
Mof_C 	C 	0.34141	0.4626	0.96118	0.022
Mof_C 	C 	0.36534	0.562	0.95972	-0.053
Mof_C 	C 	0.46037	0.5732	0.89606	-0.072
Mof_C 	C 	0.53055	0.4864	0.8387	0.035
Mof_C 	C 	0.23839	0.4426	0.02542	-0.104
Mof_C 	C 	0.04392	0.417	0.05836	-0.059
Mof_C 	C 	0.06003	0.5752	0.97074	-0.048
Mof_C 	C 	0.67932	0.1214	0.90116	-0.007
Mof_C 	C 	0.69741	0.0374	0.96118	0.019
Mof_C 	C 	0.67494	0.938	0.95972	-0.049
Mof_C 	C 	0.64357	0.9268	0.89606	-0.073
Mof_C 	C 	0.63075	0.0136	0.8387	0.035
Mof_C 	C 	0.73619	0.0574	0.02542	-0.1
Mof_C 	C 	0.89772	0.083	0.05836	-0.06
Mof_C 	C 	0.96923	0.9248	0.97074	-0.045
Mof_C 	C 	0.70188	0.3786	0.59884	-0.009
Mof_C 	C 	0.69599	0.4626	0.53882	0.023
Mof_C 	C 	0.57266	0.562	0.54028	-0.054
Mof_C 	C 	0.46643	0.5732	0.60394	-0.072
Mof_C 	C 	0.48305	0.4864	0.6613	0.035
Mof_C 	C 	0.81901	0.4426	0.47458	-0.105
Mof_C 	C 	0.03908	0.417	0.44164	-0.06
Mof_C 	C 	0.86477	0.5752	0.52926	-0.048
Mof_C 	C 	0.69928	0.1214	0.59884	-0.009
Mof_C 	C 	0.76519	0.0374	0.53882	0.023
Mof_C 	C 	0.88706	0.938	0.54028	-0.054
Mof_C 	C 	0.92963	0.9268	0.60394	-0.072
Mof_C 	C 	0.85565	0.0136	0.6613	0.034
Mof_C 	C 	0.70641	0.0574	0.47458	-0.104
Mof_C 	C 	0.51928	0.083	0.44164	-0.06
Mof_C 	C 	0.60597	0.9248	0.52926	-0.048
Mof_C 	C 	0.58048	0.6214	0.09884	-0.008
Mof_C 	C 	0.65859	0.5374	0.03882	0.022
Mof_C 	C 	0.63466	0.438	0.04028	-0.053
Mof_C 	C 	0.53963	0.4268	0.10394	-0.072
Mof_C 	C 	0.46945	0.5136	0.1613	0.035
Mof_C 	C 	0.76161	0.5574	0.97458	-0.104
Mof_C 	C 	0.95608	0.583	0.94164	-0.059
Mof_C 	C 	0.93997	0.4248	0.02926	-0.048
Mof_C 	C 	0.32068	0.8786	0.09884	-0.007
Mof_C 	C 	0.30259	0.9626	0.03882	0.019
Mof_C 	C 	0.32506	0.062	0.04028	-0.049
Mof_C 	C 	0.35643	0.0732	0.10394	-0.073
Mof_C 	C 	0.36925	0.9864	0.1613	0.035
Mof_C 	C 	0.26381	0.9426	0.97458	-0.1
Mof_C 	C 	0.10228	0.917	0.94164	-0.06
Mof_C 	C 	0.03077	0.0752	0.02926	-0.045
Mof_C 	C 	0.29812	0.6214	0.40116	-0.009
Mof_C 	C 	0.30401	0.5374	0.46118	0.023
Mof_C 	C 	0.42734	0.438	0.45972	-0.054
Mof_C 	C 	0.53357	0.4268	0.39606	-0.072
Mof_C 	C 	0.51695	0.5136	0.3387	0.035
Mof_C 	C 	0.18099	0.5574	0.52542	-0.105
Mof_C 	C 	0.96092	0.583	0.55836	-0.06
Mof_C 	C 	0.13523	0.4248	0.47074	-0.048
Mof_C 	C 	0.30072	0.8786	0.40116	-0.009
Mof_C 	C 	0.23481	0.9626	0.46118	0.023
Mof_C 	C 	0.11294	0.062	0.45972	-0.054
Mof_C 	C 	0.07037	0.0732	0.39606	-0.072
Mof_C 	C 	0.14435	0.9864	0.3387	0.034
Mof_C 	C 	0.29359	0.9426	0.52542	-0.104
Mof_C 	C 	0.48072	0.917	0.55836	-0.06
Mof_C 	C 	0.39403	0.0752	0.47074	-0.048
Mof_N 	N 	0.51243	0.389	0.84034	-0.252
Mof_N 	N 	0.13452	0.4514	0.99516	-0.089
Mof_N 	N 	0.64723	0.111	0.84034	-0.252
Mof_N 	N 	0.87032	0.0486	0.99516	-0.09
Mof_N 	N 	0.59857	0.389	0.65966	-0.252
Mof_N 	N 	0.91408	0.4514	0.50484	-0.089
Mof_N 	N 	0.74177	0.111	0.65966	-0.252
Mof_N 	N 	0.58108	0.0486	0.50484	-0.089
Mof_N 	N 	0.48757	0.611	0.15966	-0.252
Mof_N 	N 	0.86548	0.5486	0.00484	-0.089
Mof_N 	N 	0.35277	0.889	0.15966	-0.252
Mof_N 	N 	0.12968	0.9514	0.00484	-0.09
Mof_N 	N 	0.40143	0.611	0.34034	-0.252
Mof_N 	N 	0.08592	0.5486	0.49516	-0.089
Mof_N 	N 	0.25823	0.889	0.34034	-0.252
Mof_N 	N 	0.41892	0.9514	0.49516	-0.089
_end
