data_functionalizedCrystal
_audit_creation_method	'EQeq! by Chris Wilmer'
_symmetry_space_group_name_H-M	'P1'
_symmetry_Int_Tables_number	1
_symmetry_cell_setting	triclinic
loop_
_symmetry_equiv_pos_as_xyz
  x,y,z
_cell_length_a	22.251
_cell_length_b	37.791
_cell_length_c	8.239
_cell_angle_alpha	90
_cell_angle_beta	90
_cell_angle_gamma	90
loop_
_atom_site_label
_atom_site_type_symbol
_atom_site_fract_x
_atom_site_fract_y
_atom_site_fract_z
_atom_site_charge
Mof_In	In	0.32485	0.64231	0.90306	2.966
Mof_In	In	0.17783	0.64483	0.16901	3.024
Mof_In	In	0.24973	0.60776	0.53459	3.152
Mof_C 	C 	0.2511	0.5317	0.9507	-0.132
Mof_C 	C 	0.2396	0.5321	0.1209	-0.118
Mof_C 	C 	0.2646	0.5653	0.858	0.618
Mof_C 	C 	0.2272	0.5656	0.2107	0.624
Mof_C 	C 	0.0552	0.6287	0.5867	-0.194
Mof_C 	C 	0.0553	0.6379	0.7522	-0.003
Mof_C 	C 	0.1112	0.6475	0.842	0.406
Mof_C 	C 	0.1119	0.6225	0.4934	0.672
Mof_C 	C 	0.4457	0.7317	0.8039	-0.112
Mof_C 	C 	0.4457	0.7676	0.7511	-0.081
Mof_C 	C 	0.3873	0.7121	0.825	0.513
Mof_C 	C 	0.3878	0.7886	0.729	0.487
Mof_C 	C 	0.4451	0.6311	0.3153	-0.006
Mof_C 	C 	0.3892	0.6406	0.2223	0.404
Mof_C 	C 	0.3874	0.6171	0.5738	0.652
Mof_C 	C 	0.4449	0.6226	0.4815	-0.186
Mof_O 	O 	0.2471	0.5664	0.3571	-0.768
Mof_O 	O 	0.2387	0.6491	0.3637	-1.135
Mof_O 	O 	0.2647	0.6476	0.7056	-1.146
Mof_O 	O 	0.2451	0.5664	0.7134	-0.765
Mof_O 	O 	0.2513	0.6651	0.0321	-1.103
Mof_O 	O 	0.1109	0.629	0.3461	-0.771
Mof_O 	O 	0.1542	0.6102	0.5731	-0.791
Mof_O 	O 	0.3832	0.6237	0.0894	-0.647
Mof_O 	O 	0.1174	0.6303	0.9772	-0.657
Mof_O 	O 	0.1992	0.589	0.141	-0.781
Mof_O 	O 	0.296	0.5876	0.9281	-0.773
Mof_O 	O 	0.3893	0.6229	0.7203	-0.746
Mof_O 	O 	0.3446	0.6054	0.493	-0.789
Mof_O 	O 	0.3682	0.8053	0.8345	-0.74
Mof_O 	O 	0.3856	0.6868	0.9071	-0.731
Mof_O 	O 	0.1441	0.6707	0.792	-0.34
Mof_O 	O 	0.3417	0.7229	0.746	-0.387
Mof_O 	O 	0.3735	0.793	0.572	-0.32
Mof_O 	O 	0.3561	0.6644	0.2704	-0.358
Mof_H 	H 	0.2387	0.67556	0.3637	0.237
Mof_H 	H 	0.2353	0.82594	0.2944	0.249
Mof_H 	H 	0.2487	0.80844	0.9679	0.24
Mof_In	In	0.67515	0.35769	0.90306	2.966
Mof_In	In	0.82217	0.35517	0.16901	3.026
Mof_In	In	0.75027	0.39224	0.53459	3.152
Mof_C 	C 	0.7489	0.4683	0.9507	-0.132
Mof_C 	C 	0.7604	0.4679	0.1209	-0.117
Mof_C 	C 	0.7354	0.4347	0.858	0.618
Mof_C 	C 	0.7728	0.4344	0.2107	0.624
Mof_C 	C 	0.9448	0.3713	0.5867	-0.183
Mof_C 	C 	0.9447	0.3621	0.7522	0.008
Mof_C 	C 	0.8888	0.3525	0.842	0.405
Mof_C 	C 	0.8881	0.3775	0.4934	0.671
Mof_C 	C 	0.5543	0.2683	0.8039	-0.112
Mof_C 	C 	0.5543	0.2324	0.7511	-0.081
Mof_C 	C 	0.6127	0.2879	0.825	0.513
Mof_C 	C 	0.6122	0.2114	0.729	0.487
Mof_C 	C 	0.5549	0.3689	0.3153	-0.006
Mof_C 	C 	0.6108	0.3594	0.2223	0.404
Mof_C 	C 	0.6126	0.3829	0.5738	0.652
Mof_C 	C 	0.5551	0.3774	0.4815	-0.186
Mof_O 	O 	0.7529	0.4336	0.3571	-0.768
Mof_O 	O 	0.7613	0.3509	0.3637	-1.135
Mof_O 	O 	0.7353	0.3524	0.7056	-1.147
Mof_O 	O 	0.7549	0.4336	0.7134	-0.764
Mof_O 	O 	0.7487	0.3349	0.0321	-1.104
Mof_O 	O 	0.8891	0.371	0.3461	-0.767
Mof_O 	O 	0.8458	0.3898	0.5731	-0.79
Mof_O 	O 	0.6168	0.3763	0.0894	-0.647
Mof_O 	O 	0.8826	0.3697	0.9772	-0.653
Mof_O 	O 	0.8008	0.411	0.141	-0.78
Mof_O 	O 	0.704	0.4124	0.9281	-0.773
Mof_O 	O 	0.6107	0.3771	0.7203	-0.746
Mof_O 	O 	0.6554	0.3946	0.493	-0.789
Mof_O 	O 	0.6318	0.1947	0.8345	-0.74
Mof_O 	O 	0.6144	0.3132	0.9071	-0.731
Mof_O 	O 	0.8559	0.3293	0.792	-0.339
Mof_O 	O 	0.6583	0.2771	0.746	-0.386
Mof_O 	O 	0.6265	0.207	0.572	-0.32
Mof_O 	O 	0.6439	0.3356	0.2704	-0.358
Mof_H 	H 	0.7613	0.32444	0.3637	0.237
Mof_H 	H 	0.7647	0.17406	0.2944	0.25
Mof_H 	H 	0.7513	0.19156	0.9679	0.24
Mof_In	In	0.17515	0.14231	0.09694	2.966
Mof_In	In	0.32217	0.14483	0.83099	3.025
Mof_In	In	0.25027	0.10776	0.46541	3.151
Mof_C 	C 	0.2489	0.0317	0.0493	-0.131
Mof_C 	C 	0.2604	0.0321	0.8791	-0.119
Mof_C 	C 	0.2354	0.0653	0.142	0.617
Mof_C 	C 	0.2728	0.0656	0.7893	0.624
Mof_C 	C 	0.4448	0.1287	0.4133	-0.197
Mof_C 	C 	0.4447	0.1379	0.2478	-0.005
Mof_C 	C 	0.3888	0.1475	0.158	0.408
Mof_C 	C 	0.3881	0.1225	0.5066	0.674
Mof_C 	C 	0.0543	0.2317	0.1961	-0.111
Mof_C 	C 	0.0543	0.2676	0.2489	-0.077
Mof_C 	C 	0.1127	0.2121	0.175	0.512
Mof_C 	C 	0.1122	0.2886	0.271	0.485
Mof_C 	C 	0.0549	0.1311	0.6847	-0.003
Mof_C 	C 	0.1108	0.1406	0.7777	0.403
Mof_C 	C 	0.1126	0.1171	0.4262	0.65
Mof_C 	C 	0.0551	0.1226	0.5185	-0.184
Mof_O 	O 	0.2529	0.0664	0.6429	-0.768
Mof_O 	O 	0.2613	0.1491	0.6363	-1.135
Mof_O 	O 	0.2353	0.1476	0.2944	-1.146
Mof_O 	O 	0.2549	0.0664	0.2866	-0.764
Mof_O 	O 	0.2487	0.1651	0.9679	-1.104
Mof_O 	O 	0.3891	0.129	0.6539	-0.771
Mof_O 	O 	0.3458	0.1102	0.4269	-0.791
Mof_O 	O 	0.1168	0.1237	0.9106	-0.649
Mof_O 	O 	0.3826	0.1303	0.0228	-0.656
Mof_O 	O 	0.3008	0.089	0.859	-0.781
Mof_O 	O 	0.204	0.0876	0.0719	-0.773
Mof_O 	O 	0.1107	0.1229	0.2797	-0.746
Mof_O 	O 	0.1554	0.1054	0.507	-0.789
Mof_O 	O 	0.1318	0.3053	0.1655	-0.74
Mof_O 	O 	0.1144	0.1868	0.0929	-0.731
Mof_O 	O 	0.3559	0.1707	0.208	-0.34
Mof_O 	O 	0.1583	0.2229	0.254	-0.386
Mof_O 	O 	0.1265	0.293	0.428	-0.321
Mof_O 	O 	0.1439	0.1644	0.7296	-0.358
Mof_H 	H 	0.2613	0.17556	0.6363	0.237
Mof_H 	H 	0.2647	0.32594	0.7056	0.249
Mof_H 	H 	0.2513	0.30844	0.0321	0.24
Mof_In	In	0.82485	0.85769	0.09694	2.968
Mof_In	In	0.67783	0.85517	0.83099	3.025
Mof_In	In	0.74973	0.89224	0.46541	3.152
Mof_C 	C 	0.7511	0.9683	0.0493	-0.129
Mof_C 	C 	0.7396	0.9679	0.8791	-0.117
Mof_C 	C 	0.7646	0.9347	0.142	0.618
Mof_C 	C 	0.7272	0.9344	0.7893	0.624
Mof_C 	C 	0.5552	0.8713	0.4133	-0.197
Mof_C 	C 	0.5553	0.8621	0.2478	-0.005
Mof_C 	C 	0.6112	0.8525	0.158	0.408
Mof_C 	C 	0.6119	0.8775	0.5066	0.674
Mof_C 	C 	0.9457	0.7683	0.1961	-0.1
Mof_C 	C 	0.9457	0.7324	0.2489	-0.066
Mof_C 	C 	0.8873	0.7879	0.175	0.51
Mof_C 	C 	0.8878	0.7114	0.271	0.483
Mof_C 	C 	0.9451	0.8689	0.6847	0.008
Mof_C 	C 	0.8892	0.8594	0.7777	0.401
Mof_C 	C 	0.8874	0.8829	0.4262	0.649
Mof_C 	C 	0.9449	0.8774	0.5185	-0.173
Mof_O 	O 	0.7471	0.9336	0.6429	-0.767
Mof_O 	O 	0.7387	0.8509	0.6363	-1.135
Mof_O 	O 	0.7647	0.8524	0.2944	-1.147
Mof_O 	O 	0.7451	0.9336	0.2866	-0.764
Mof_O 	O 	0.7513	0.8349	0.9679	-1.104
Mof_O 	O 	0.6109	0.871	0.6539	-0.771
Mof_O 	O 	0.6542	0.8898	0.4269	-0.791
Mof_O 	O 	0.8832	0.8763	0.9106	-0.645
Mof_O 	O 	0.6174	0.8697	0.0228	-0.656
Mof_O 	O 	0.6992	0.911	0.859	-0.781
Mof_O 	O 	0.796	0.9124	0.0719	-0.772
Mof_O 	O 	0.8893	0.8771	0.2797	-0.742
Mof_O 	O 	0.8446	0.8946	0.507	-0.788
Mof_O 	O 	0.8682	0.6947	0.1655	-0.738
Mof_O 	O 	0.8856	0.8132	0.0929	-0.728
Mof_O 	O 	0.6441	0.8293	0.208	-0.34
Mof_O 	O 	0.8417	0.7771	0.254	-0.385
Mof_O 	O 	0.8735	0.707	0.428	-0.318
Mof_O 	O 	0.8561	0.8356	0.7296	-0.356
Mof_H 	H 	0.7387	0.82444	0.6363	0.237
Mof_H 	H 	0.7353	0.67406	0.7056	0.249
Mof_H 	H 	0.7487	0.69156	0.0321	0.24
Mof_In	In	0.17515	0.85769	0.09694	2.966
Mof_In	In	0.32217	0.85517	0.83099	3.025
Mof_In	In	0.25027	0.89224	0.46541	3.152
Mof_C 	C 	0.2489	0.9683	0.0493	-0.129
Mof_C 	C 	0.2604	0.9679	0.8791	-0.118
Mof_C 	C 	0.2354	0.9347	0.142	0.617
Mof_C 	C 	0.2728	0.9344	0.7893	0.624
Mof_C 	C 	0.4448	0.8713	0.4133	-0.197
Mof_C 	C 	0.4447	0.8621	0.2478	-0.005
Mof_C 	C 	0.3888	0.8525	0.158	0.408
Mof_C 	C 	0.3881	0.8775	0.5066	0.674
Mof_C 	C 	0.0543	0.7683	0.1961	-0.111
Mof_C 	C 	0.0543	0.7324	0.2489	-0.077
Mof_C 	C 	0.1127	0.7879	0.175	0.512
Mof_C 	C 	0.1122	0.7114	0.271	0.485
Mof_C 	C 	0.0549	0.8689	0.6847	-0.003
Mof_C 	C 	0.1108	0.8594	0.7777	0.403
Mof_C 	C 	0.1126	0.8829	0.4262	0.65
Mof_C 	C 	0.0551	0.8774	0.5185	-0.184
Mof_O 	O 	0.2529	0.9336	0.6429	-0.768
Mof_O 	O 	0.2613	0.8509	0.6363	-1.135
Mof_O 	O 	0.2353	0.8524	0.2944	-1.146
Mof_O 	O 	0.2549	0.9336	0.2866	-0.764
Mof_O 	O 	0.2487	0.8349	0.9679	-1.104
Mof_O 	O 	0.3891	0.871	0.6539	-0.771
Mof_O 	O 	0.3458	0.8898	0.4269	-0.791
Mof_O 	O 	0.1168	0.8763	0.9106	-0.648
Mof_O 	O 	0.3826	0.8697	0.0228	-0.656
Mof_O 	O 	0.3008	0.911	0.859	-0.78
Mof_O 	O 	0.204	0.9124	0.0719	-0.773
Mof_O 	O 	0.1107	0.8771	0.2797	-0.746
Mof_O 	O 	0.1554	0.8946	0.507	-0.789
Mof_O 	O 	0.1318	0.6947	0.1655	-0.74
Mof_O 	O 	0.1144	0.8132	0.0929	-0.731
Mof_O 	O 	0.3559	0.8293	0.208	-0.34
Mof_O 	O 	0.1583	0.7771	0.254	-0.386
Mof_O 	O 	0.1265	0.707	0.428	-0.321
Mof_O 	O 	0.1439	0.8356	0.7296	-0.358
Mof_H 	H 	0.2613	0.82444	0.6363	0.237
Mof_H 	H 	0.2647	0.67406	0.7056	0.249
Mof_H 	H 	0.2513	0.69156	0.0321	0.24
Mof_In	In	0.82485	0.14231	0.09694	2.968
Mof_In	In	0.67783	0.14483	0.83099	3.025
Mof_In	In	0.74973	0.10776	0.46541	3.152
Mof_C 	C 	0.7511	0.0317	0.0493	-0.13
Mof_C 	C 	0.7396	0.0321	0.8791	-0.118
Mof_C 	C 	0.7646	0.0653	0.142	0.618
Mof_C 	C 	0.7272	0.0656	0.7893	0.624
Mof_C 	C 	0.5552	0.1287	0.4133	-0.197
Mof_C 	C 	0.5553	0.1379	0.2478	-0.005
Mof_C 	C 	0.6112	0.1475	0.158	0.408
Mof_C 	C 	0.6119	0.1225	0.5066	0.674
Mof_C 	C 	0.9457	0.2317	0.1961	-0.1
Mof_C 	C 	0.9457	0.2676	0.2489	-0.066
Mof_C 	C 	0.8873	0.2121	0.175	0.51
Mof_C 	C 	0.8878	0.2886	0.271	0.483
Mof_C 	C 	0.9451	0.1311	0.6847	0.008
Mof_C 	C 	0.8892	0.1406	0.7777	0.401
Mof_C 	C 	0.8874	0.1171	0.4262	0.649
Mof_C 	C 	0.9449	0.1226	0.5185	-0.173
Mof_O 	O 	0.7471	0.0664	0.6429	-0.768
Mof_O 	O 	0.7387	0.1491	0.6363	-1.135
Mof_O 	O 	0.7647	0.1476	0.2944	-1.147
Mof_O 	O 	0.7451	0.0664	0.2866	-0.764
Mof_O 	O 	0.7513	0.1651	0.9679	-1.104
Mof_O 	O 	0.6109	0.129	0.6539	-0.771
Mof_O 	O 	0.6542	0.1102	0.4269	-0.791
Mof_O 	O 	0.8832	0.1237	0.9106	-0.645
Mof_O 	O 	0.6174	0.1303	0.0228	-0.656
Mof_O 	O 	0.6992	0.089	0.859	-0.781
Mof_O 	O 	0.796	0.0876	0.0719	-0.772
Mof_O 	O 	0.8893	0.1229	0.2797	-0.742
Mof_O 	O 	0.8446	0.1054	0.507	-0.788
Mof_O 	O 	0.8682	0.3053	0.1655	-0.738
Mof_O 	O 	0.8856	0.1868	0.0929	-0.728
Mof_O 	O 	0.6441	0.1707	0.208	-0.34
Mof_O 	O 	0.8417	0.2229	0.254	-0.385
Mof_O 	O 	0.8735	0.293	0.428	-0.318
Mof_O 	O 	0.8561	0.1644	0.7296	-0.356
Mof_H 	H 	0.7387	0.17556	0.6363	0.237
Mof_H 	H 	0.7353	0.32594	0.7056	0.249
Mof_H 	H 	0.7487	0.30844	0.0321	0.24
Mof_In	In	0.32485	0.35769	0.90306	2.966
Mof_In	In	0.17783	0.35517	0.16901	3.024
Mof_In	In	0.24973	0.39224	0.53459	3.152
Mof_C 	C 	0.2511	0.4683	0.9507	-0.132
Mof_C 	C 	0.2396	0.4679	0.1209	-0.118
Mof_C 	C 	0.2646	0.4347	0.858	0.618
Mof_C 	C 	0.2272	0.4344	0.2107	0.624
Mof_C 	C 	0.0552	0.3713	0.5867	-0.194
Mof_C 	C 	0.0553	0.3621	0.7522	-0.003
Mof_C 	C 	0.1112	0.3525	0.842	0.406
Mof_C 	C 	0.1119	0.3775	0.4934	0.672
Mof_C 	C 	0.4457	0.2683	0.8039	-0.112
Mof_C 	C 	0.4457	0.2324	0.7511	-0.081
Mof_C 	C 	0.3873	0.2879	0.825	0.513
Mof_C 	C 	0.3878	0.2114	0.729	0.487
Mof_C 	C 	0.4451	0.3689	0.3153	-0.006
Mof_C 	C 	0.3892	0.3594	0.2223	0.404
Mof_C 	C 	0.3874	0.3829	0.5738	0.652
Mof_C 	C 	0.4449	0.3774	0.4815	-0.186
Mof_O 	O 	0.2471	0.4336	0.3571	-0.768
Mof_O 	O 	0.2387	0.3509	0.3637	-1.135
Mof_O 	O 	0.2647	0.3524	0.7056	-1.146
Mof_O 	O 	0.2451	0.4336	0.7134	-0.765
Mof_O 	O 	0.2513	0.3349	0.0321	-1.103
Mof_O 	O 	0.1109	0.371	0.3461	-0.771
Mof_O 	O 	0.1542	0.3898	0.5731	-0.791
Mof_O 	O 	0.3832	0.3763	0.0894	-0.647
Mof_O 	O 	0.1174	0.3697	0.9772	-0.657
Mof_O 	O 	0.1992	0.411	0.141	-0.781
Mof_O 	O 	0.296	0.4124	0.9281	-0.773
Mof_O 	O 	0.3893	0.3771	0.7203	-0.746
Mof_O 	O 	0.3446	0.3946	0.493	-0.789
Mof_O 	O 	0.3682	0.1947	0.8345	-0.74
Mof_O 	O 	0.3856	0.3132	0.9071	-0.731
Mof_O 	O 	0.1441	0.3293	0.792	-0.34
Mof_O 	O 	0.3417	0.2771	0.746	-0.387
Mof_O 	O 	0.3735	0.207	0.572	-0.32
Mof_O 	O 	0.3561	0.3356	0.2704	-0.358
Mof_H 	H 	0.2387	0.32444	0.3637	0.237
Mof_H 	H 	0.2353	0.17406	0.2944	0.249
Mof_H 	H 	0.2487	0.19156	0.9679	0.24
Mof_In	In	0.67515	0.64231	0.90306	2.966
Mof_In	In	0.82217	0.64483	0.16901	3.026
Mof_In	In	0.75027	0.60776	0.53459	3.152
Mof_C 	C 	0.7489	0.5317	0.9507	-0.132
Mof_C 	C 	0.7604	0.5321	0.1209	-0.117
Mof_C 	C 	0.7354	0.5653	0.858	0.618
Mof_C 	C 	0.7728	0.5656	0.2107	0.624
Mof_C 	C 	0.9448	0.6287	0.5867	-0.183
Mof_C 	C 	0.9447	0.6379	0.7522	0.008
Mof_C 	C 	0.8888	0.6475	0.842	0.405
Mof_C 	C 	0.8881	0.6225	0.4934	0.671
Mof_C 	C 	0.5543	0.7317	0.8039	-0.112
Mof_C 	C 	0.5543	0.7676	0.7511	-0.081
Mof_C 	C 	0.6127	0.7121	0.825	0.513
Mof_C 	C 	0.6122	0.7886	0.729	0.487
Mof_C 	C 	0.5549	0.6311	0.3153	-0.006
Mof_C 	C 	0.6108	0.6406	0.2223	0.404
Mof_C 	C 	0.6126	0.6171	0.5738	0.652
Mof_C 	C 	0.5551	0.6226	0.4815	-0.186
Mof_O 	O 	0.7529	0.5664	0.3571	-0.768
Mof_O 	O 	0.7613	0.6491	0.3637	-1.135
Mof_O 	O 	0.7353	0.6476	0.7056	-1.147
Mof_O 	O 	0.7549	0.5664	0.7134	-0.764
Mof_O 	O 	0.7487	0.6651	0.0321	-1.104
Mof_O 	O 	0.8891	0.629	0.3461	-0.767
Mof_O 	O 	0.8458	0.6102	0.5731	-0.79
Mof_O 	O 	0.6168	0.6237	0.0894	-0.647
Mof_O 	O 	0.8826	0.6303	0.9772	-0.653
Mof_O 	O 	0.8008	0.589	0.141	-0.78
Mof_O 	O 	0.704	0.5876	0.9281	-0.773
Mof_O 	O 	0.6107	0.6229	0.7203	-0.746
Mof_O 	O 	0.6554	0.6054	0.493	-0.789
Mof_O 	O 	0.6318	0.8053	0.8345	-0.74
Mof_O 	O 	0.6144	0.6868	0.9071	-0.731
Mof_O 	O 	0.8559	0.6707	0.792	-0.339
Mof_O 	O 	0.6583	0.7229	0.746	-0.386
Mof_O 	O 	0.6265	0.793	0.572	-0.32
Mof_O 	O 	0.6439	0.6644	0.2704	-0.358
Mof_H 	H 	0.7613	0.67556	0.3637	0.237
Mof_H 	H 	0.7647	0.82594	0.2944	0.25
Mof_H 	H 	0.7513	0.80844	0.9679	0.24
Mof_H 	H 	0.227	0.5	0.3091	0.018
Mof_H 	H 	0.2654	0.5	0.7587	0.016
Mof_C 	C 	0.2344	0.5	0.198	0.078
Mof_C 	C 	0.2572	0.5	0.8694	0.077
Mof_H 	H 	0.773	0.5	0.3091	0.019
Mof_H 	H 	0.7346	0.5	0.7587	0.017
Mof_C 	C 	0.7656	0.5	0.198	0.079
Mof_C 	C 	0.7428	0.5	0.8694	0.077
Mof_H 	H 	0.273	-1.82183e-33	0.6909	0.018
Mof_H 	H 	0.2346	0	0.2413	0.017
Mof_C 	C 	0.2656	-1.82183e-33	0.802	0.076
Mof_C 	C 	0.2428	-2.27729e-34	0.1306	0.073
Mof_H 	H 	0.727	-1.82183e-33	0.6909	0.018
Mof_H 	H 	0.7654	0	0.2413	0.018
Mof_C 	C 	0.7344	-1.82183e-33	0.802	0.077
Mof_C 	C 	0.7572	-2.27729e-34	0.1306	0.074
Mof_H 	H 	1.30501e-33	0.6478	0.94	0.053
Mof_H 	H 	2.37965e-33	0.6185	0.4018	0.002
Mof_C 	C 	1.1523e-33	0.642	0.83	-0.045
Mof_C 	C 	-2.93423e-33	0.6245	0.511	0.122
Mof_H 	H 	-5.98231e-33	0.3522	0.94	0.053
Mof_H 	H 	2.37965e-33	0.3815	0.4018	0.002
Mof_C 	C 	-6.13502e-33	0.358	0.83	-0.045
Mof_C 	C 	-2.93423e-33	0.3755	0.511	0.122
Mof_H 	H 	0.5	0.1478	0.06	0.051
Mof_H 	H 	0.5	0.1185	0.5982	-0.001
Mof_C 	C 	0.5	0.142	0.17	-0.026
Mof_C 	C 	0.5	0.1245	0.489	0.142
Mof_H 	H 	0.5	0.8522	0.06	0.051
Mof_H 	H 	0.5	0.8815	0.5982	-0.001
Mof_C 	C 	0.5	0.858	0.17	-0.026
Mof_C 	C 	0.5	0.8755	0.489	0.143
Mof_H 	H 	0.5	0.6915	0.88	0.026
Mof_H 	H 	0.5	0.8073	0.6939	0.02
Mof_H 	H 	0.5	0.6409	0.1256	0.061
Mof_H 	H 	0.5	0.6155	0.675	0.008
Mof_C 	C 	0.5	0.7143	0.837	0.064
Mof_C 	C 	0.5	0.7838	0.728	0.044
Mof_C 	C 	0.5	0.6352	0.235	-0.029
Mof_C 	C 	0.5	0.6196	0.5637	0.122
Mof_H 	H 	0.5	0.3085	0.88	0.026
Mof_H 	H 	0.5	0.1927	0.6939	0.02
Mof_H 	H 	0.5	0.3591	0.1256	0.061
Mof_H 	H 	0.5	0.3845	0.675	0.008
Mof_C 	C 	0.5	0.2857	0.837	0.064
Mof_C 	C 	0.5	0.2162	0.728	0.044
Mof_C 	C 	0.5	0.3648	0.235	-0.029
Mof_C 	C 	0.5	0.3804	0.5637	0.122
Mof_H 	H 	-7.44318e-34	0.1915	0.12	0.029
Mof_H 	H 	1.33588e-33	0.3073	0.3061	0.024
Mof_H 	H 	1.21394e-33	0.1409	0.8744	0.063
Mof_H 	H 	1.36212e-33	0.1155	0.325	0.01
Mof_C 	C 	-2.29163e-34	0.2143	0.163	0.045
Mof_C 	C 	-5.33295e-34	0.2838	0.272	0.022
Mof_C 	C 	4.70572e-33	0.1352	0.765	-0.048
Mof_C 	C 	-4.85977e-33	0.1196	0.4363	0.104
Mof_H 	H 	1.01867e-32	0.8085	0.12	0.029
Mof_H 	H 	4.97954e-33	0.6927	0.3061	0.024
Mof_H 	H 	4.8576e-33	0.8591	0.8744	0.063
Mof_H 	H 	-2.23217e-32	0.8845	0.325	0.01
Mof_C 	C 	-1.48038e-32	0.7857	0.163	0.045
Mof_C 	C 	6.75403e-33	0.7162	0.272	0.022
Mof_C 	C 	4.70572e-33	0.8648	0.765	-0.048
Mof_C 	C 	6.07121e-33	0.8804	0.4363	0.104
_end
