# CIF file generated by openbabel 3.1.0, see https://openbabel.org
data_I
_chemical_name_common 'image0'
_cell_length_a 10.4926
_cell_length_b 11.2193
_cell_length_c 12.7812
_cell_angle_alpha 101.079
_cell_angle_beta 110.206
_cell_angle_gamma 99.87
_space_group_name_H-M_alt 'P 1'
_space_group_name_Hall 'P 1'
loop_
    _symmetry_equiv_pos_as_xyz
    x,y,z
loop_
    _atom_site_label
    _atom_site_type_symbol
    _atom_site_fract_x
    _atom_site_fract_y
    _atom_site_fract_z
    _atom_site_occupancy
    Gd1      Gd       0.39392    0.45096    0.32474    1.000
    O1       O        0.31770    0.26410    0.15940    1.000
    O2       O        0.16570    0.29280    0.23620    1.000
    C1       C        0.20050    0.22810    0.16500    1.000
    C2       C        0.09630    0.11080    0.07870    1.000
    C3       C        0.13750    0.03020    0.00810    1.000
    H1       H        0.23210    0.04850    0.01420    1.000
    N1       N        0.27600    0.05210    0.01290    1.000
    H2       H        0.34080    0.11950    0.06230    1.000
    H3       H        0.29830    0.99840    0.96630    1.000
    C4       C        0.96090    0.07910    0.07290    1.000
    H4       H        0.93350    0.13180    0.12420    1.000
    N2       N        0.09150    0.84180    0.85740    1.000
    H5       H        0.03610    0.76980    0.80850    1.000
    H6       H        0.17890    0.86560    0.86380    1.000
    O3       O        0.50040    0.67190    0.40380    1.000
    O4       O        0.57040    0.72210    0.59690    1.000
    C5       C        0.53050    0.74670    0.50120    1.000
    C6       C        0.51690    0.87920    0.50260    1.000
    C7       C        0.51280    0.96010    0.60010    1.000
    H7       H        0.47760    0.06650    0.33200    1.000
    N3       N        0.48270    0.07930    0.29760    1.000
    H8       H        0.47700    0.15780    0.29460    1.000
    H9       H        0.48550    0.02520    0.23700    1.000
    H10      H        0.52700    0.84380    0.69830    1.000
    C8       C        0.51000    0.97500    0.80000    1.000
    O5       O        0.52200    0.09000    0.84000    1.000
    C9       C        0.45900    0.89000    0.84800    1.000
    C10      C        0.50550    0.92060    0.40460    1.000
    H11      H        0.51030    0.86670    0.33970    1.000
    O6       O        0.62080    0.43700    0.32510    1.000
    O7       O        0.65380    0.50290    0.50800    1.000
    C11      C        0.70160    0.47430    0.43210    1.000
    C12      C        0.85520    0.48670    0.46630    1.000
    C13      C        0.90940    0.44110    0.38470    1.000
    H12      H        0.15160    0.59880    0.69380    1.000
    N4       N        0.82890    0.38190    0.27300    1.000
    H13      H        0.86790    0.35380    0.22560    1.000
    H14      H        0.73720    0.37110    0.24710    1.000
    C14      C        0.94560    0.54450    0.57920    1.000
    H15      H        0.90880    0.57560    0.63410    1.000
    O8       O        0.20770    0.55980    0.26100    1.000
    C15      C        0.19180    0.65910    0.26250    1.000
    H16      H        0.26000    0.72270    0.32790    1.000
    N5       N        0.09890    0.70170    0.19260    1.000
    C16      C        0.98500    0.62100    0.08700    1.000
    C17      C        0.10200    0.83380    0.21440    1.000
    O9       O        0.19900    0.53470    0.23840    1.000
    C18      C        0.19690    0.63350    0.22000    1.000
    H17      H        0.28420    0.69420    0.24580    1.000
    N6       N        0.08050    0.66560    0.16540    1.000
    C19      C        0.94100    0.58700    0.12100    1.000
    C20      C        0.10300    0.79400    0.15200    1.000
    Gd2      Gd       0.60608    0.54904    0.67526    1.000
    O10      O        0.68230    0.73590    0.84060    1.000
    O11      O        0.83430    0.70720    0.76380    1.000
    C21      C        0.79950    0.77190    0.83500    1.000
    C22      C        0.90370    0.88920    0.92130    1.000
    C23      C        0.86250    0.96980    0.99190    1.000
    H18      H        0.76790    0.95150    0.98580    1.000
    N7       N        0.72400    0.94790    0.98710    1.000
    H19      H        0.65920    0.88050    0.93770    1.000
    H20      H        0.70170    0.00160    0.03370    1.000
    C24      C        0.03910    0.92090    0.92710    1.000
    H21      H        0.06650    0.86820    0.87580    1.000
    N8       N        0.90850    0.15820    0.14260    1.000
    H22      H        0.96390    0.23020    0.19150    1.000
    H23      H        0.82110    0.13440    0.13620    1.000
    O12      O        0.49960    0.32810    0.59620    1.000
    O13      O        0.42960    0.27790    0.40310    1.000
    C25      C        0.46950    0.25330    0.49880    1.000
    C26      C        0.48310    0.12080    0.49740    1.000
    C27      C        0.48720    0.03990    0.39990    1.000
    H24      H        0.52240    0.93350    0.66800    1.000
    N9       N        0.51730    0.92070    0.70240    1.000
    H25      H        0.52300    0.84220    0.70540    1.000
    H26      H        0.51450    0.97480    0.76300    1.000
    H27      H        0.47300    0.15620    0.30170    1.000
    C28      C        0.49000    0.02500    0.20000    1.000
    O14      O        0.47800    0.91000    0.16000    1.000
    C29      C        0.54100    0.11000    0.15200    1.000
    C30      C        0.49450    0.07940    0.59540    1.000
    H28      H        0.48970    0.13330    0.66030    1.000
    O15      O        0.37920    0.56300    0.67490    1.000
    O16      O        0.34620    0.49710    0.49200    1.000
    C31      C        0.29840    0.52570    0.56790    1.000
    C32      C        0.14480    0.51330    0.53370    1.000
    C33      C        0.09060    0.55890    0.61530    1.000
    H29      H        0.84840    0.40120    0.30620    1.000
    N10      N        0.17110    0.61810    0.72700    1.000
    H30      H        0.13210    0.64620    0.77440    1.000
    H31      H        0.26280    0.62890    0.75290    1.000
    C34      C        0.05440    0.45550    0.42080    1.000
    H32      H        0.09120    0.42440    0.36590    1.000
    O17      O        0.79230    0.44020    0.73900    1.000
    C35      C        0.80820    0.34090    0.73750    1.000
    H33      H        0.74000    0.27730    0.67210    1.000
    N11      N        0.90110    0.29830    0.80740    1.000
    C36      C        0.01500    0.37900    0.91300    1.000
    C37      C        0.89800    0.16620    0.78560    1.000
    O18      O        0.80100    0.46530    0.76160    1.000
    C38      C        0.80310    0.36650    0.78000    1.000
    H34      H        0.71580    0.30580    0.75420    1.000
    N12      N        0.91950    0.33440    0.83460    1.000
    C39      C        0.05900    0.41300    0.87900    1.000
    C40      C        0.89700    0.20600    0.84800    1.000
