data_functionalizedCrystal
_audit_creation_method	'EQeq! by Chris Wilmer'
_symmetry_space_group_name_H-M	'P1'
_symmetry_Int_Tables_number	1
_symmetry_cell_setting	triclinic
loop_
_symmetry_equiv_pos_as_xyz
  x,y,z
_cell_length_a	10.076
_cell_length_b	11.418
_cell_length_c	14.908
_cell_angle_alpha	91.42
_cell_angle_beta	90
_cell_angle_gamma	90
loop_
_atom_site_label
_atom_site_type_symbol
_atom_site_fract_x
_atom_site_fract_y
_atom_site_fract_z
_atom_site_charge
Mof_Co	Co	0.87754	0.73947	0.30475	1.218
Mof_Co	Co	0.07254	0.75492	0.13403	1.137
Mof_Co	Co	0.37754	0.76053	0.19525	1.201
Mof_Co	Co	0.57254	0.74508	0.36597	1.191
Mof_Co	Co	0.12246	0.26053	0.69525	1.179
Mof_Co	Co	0.92746	0.24508	0.86597	1.234
Mof_Co	Co	0.62246	0.23947	0.80475	1.195
Mof_Co	Co	0.42746	0.25492	0.63403	1.185
Mof_Co	Co	-0	0	-0	1.081
Mof_Co	Co	0.5	0.5	0.5	1.209
Mof_Co	Co	-7.36133e-33	0.5	-0	1.101
Mof_Co	Co	0.5	-2.07203e-18	0.5	1.18
Mof_H 	H 	0.7791	0.9641	0.212	-0.135
Mof_H 	H 	0.8506	0.6966	0.9265	-0.106
Mof_H 	H 	0.9492	0.4771	0.257	-0.081
Mof_H 	H 	0.7827	0.4957	0.4669	-0.08
Mof_H 	H 	0.7254	0.6536	0.13	-0.133
Mof_H 	H 	0.8716	0.9407	0.4491	-0.05
Mof_H 	H 	0.2791	0.5359	0.288	-0.145
Mof_H 	H 	0.3506	0.8034	0.5735	-0.093
Mof_H 	H 	0.4492	0.0229	0.243	-0.231
Mof_H 	H 	0.2827	0.0043	0.0331	-0.217
Mof_H 	H 	0.2254	0.8464	0.37	-0.112
Mof_H 	H 	0.3716	0.5593	0.0509	-0.13
Mof_H 	H 	0.2209	0.0359	0.788	-0.098
Mof_H 	H 	0.1494	0.3034	0.0735	-0.073
Mof_H 	H 	0.0508	0.5229	0.743	-0.118
Mof_H 	H 	0.2173	0.5043	0.5331	-0.114
Mof_H 	H 	0.2746	0.3464	0.87	-0.084
Mof_H 	H 	0.1284	0.0593	0.5509	-0.151
Mof_H 	H 	0.7209	0.4641	0.712	-0.101
Mof_H 	H 	0.6494	0.1966	0.4265	-0.105
Mof_H 	H 	0.5508	0.9771	0.757	0.028
Mof_H 	H 	0.7173	0.9957	0.9669	0.032
Mof_H 	H 	0.7746	0.1536	0.63	-0.11
Mof_H 	H 	0.6284	0.4407	0.9491	-0.067
Mof_C 	C 	0.8485	0.9418	0.1741	0.582
Mof_C 	C 	0.9043	0.7411	0.9649	0.615
Mof_C 	C 	0.9726	0.5176	0.206	0.474
Mof_C 	C 	0.7664	0.5611	0.4326	0.467
Mof_C 	C 	0.6579	0.6788	0.1684	0.487
Mof_C 	C 	0.7816	0.9234	0.4441	0.465
Mof_C 	C 	0.3485	0.5582	0.3259	0.502
Mof_C 	C 	0.4043	0.7589	0.5351	0.475
Mof_C 	C 	0.4726	0.9824	0.294	0.724
Mof_C 	C 	0.2664	0.9389	0.0674	0.616
Mof_C 	C 	0.1579	0.8212	0.3316	0.489
Mof_C 	C 	0.2816	0.5766	0.0559	0.491
Mof_C 	C 	0.1515	0.0582	0.8259	0.383
Mof_C 	C 	0.0957	0.2589	0.0351	0.282
Mof_C 	C 	0.0274	0.4824	0.794	0.494
Mof_C 	C 	0.2336	0.4389	0.5674	0.487
Mof_C 	C 	0.3421	0.3212	0.8316	0.472
Mof_C 	C 	0.2184	0.0766	0.5559	0.496
Mof_C 	C 	0.6515	0.4418	0.6741	0.494
Mof_C 	C 	0.5957	0.2411	0.4649	0.484
Mof_C 	C 	0.5274	0.0176	0.706	0.251
Mof_C 	C 	0.7336	0.0611	0.9326	0.326
Mof_C 	C 	0.8421	0.1788	0.6684	0.47
Mof_C 	C 	0.7184	0.4234	0.9441	0.462
Mof_O 	O 	0.8725	0.0063	0.11059	-0.486
Mof_O 	O 	0.9101	0.84749	0.19267	-0.531
Mof_O 	O 	0.9031	0.84845	0.95587	-0.36
Mof_O 	O 	0.9733	0.6851	0.02299	-0.568
Mof_O 	O 	0.9899	0.4585	0.13635	-0.379
Mof_O 	O 	0.9835	0.62869	0.21482	-0.496
Mof_O 	O 	0.8635	0.6034	0.39296	-0.394
Mof_O 	O 	0.6472	0.5982	0.43102	-0.541
Mof_O 	O 	0.688	0.69502	0.25111	-0.55
Mof_O 	O 	0.5465	0.6939	0.13454	-0.448
Mof_O 	O 	0.7492	0.84304	0.38708	-0.527
Mof_O 	O 	0.7048	0.98088	0.49383	-0.379
Mof_O 	O 	0.3725	0.4937	0.38941	-0.446
Mof_O 	O 	0.4101	0.65251	0.30733	-0.558
Mof_O 	O 	0.4031	0.65155	0.54413	-0.431
Mof_O 	O 	0.4733	0.8149	0.47701	-0.528
Mof_O 	O 	0.4899	0.0415	0.36365	-0.539
Mof_O 	O 	0.4835	0.87131	0.28518	-0.603
Mof_O 	O 	0.3635	0.8966	0.10704	-0.466
Mof_O 	O 	0.1472	0.9018	0.06898	-0.617
Mof_O 	O 	0.188	0.80498	0.24889	-0.567
Mof_O 	O 	0.0465	0.8061	0.36546	-0.493
Mof_O 	O 	0.2492	0.65696	0.11292	-0.58
Mof_O 	O 	0.2048	0.51912	0.00617	-0.497
Mof_O 	O 	0.1275	0.9937	0.88941	-0.316
Mof_O 	O 	0.0899	0.15251	0.80733	-0.56
Mof_O 	O 	0.0969	0.15155	0.04413	-0.461
Mof_O 	O 	0.0267	0.3149	0.97701	-0.449
Mof_O 	O 	0.0101	0.5415	0.86365	-0.435
Mof_O 	O 	0.0165	0.37131	0.78518	-0.593
Mof_O 	O 	0.1365	0.3966	0.60704	-0.458
Mof_O 	O 	0.3528	0.4018	0.56898	-0.552
Mof_O 	O 	0.312	0.30498	0.74889	-0.541
Mof_O 	O 	0.4535	0.3061	0.86546	-0.406
Mof_O 	O 	0.2508	0.15696	0.61292	-0.571
Mof_O 	O 	0.2952	0.01912	0.50617	-0.467
Mof_O 	O 	0.6275	0.5063	0.61059	-0.42
Mof_O 	O 	0.5899	0.34749	0.69267	-0.551
Mof_O 	O 	0.5969	0.34845	0.45587	-0.435
Mof_O 	O 	0.5267	0.1851	0.52299	-0.549
Mof_O 	O 	0.5101	0.9585	0.63635	-0.311
Mof_O 	O 	0.5165	0.12869	0.71482	-0.497
Mof_O 	O 	0.6365	0.1034	0.89296	-0.383
Mof_O 	O 	0.8528	0.0982	0.93102	-0.444
Mof_O 	O 	0.812	0.19502	0.75111	-0.527
Mof_O 	O 	0.9535	0.1939	0.63454	-0.366
Mof_O 	O 	0.7508	0.34304	0.88708	-0.517
Mof_O 	O 	0.7952	0.48088	0.99383	-0.332
_end
