data_functionalizedCrystal
_audit_creation_method	'EQeq! by Chris Wilmer'
_symmetry_space_group_name_H-M	'P1'
_symmetry_Int_Tables_number	1
_symmetry_cell_setting	triclinic
loop_
_symmetry_equiv_pos_as_xyz
  x,y,z
_cell_length_a	9.985
_cell_length_b	13.573
_cell_length_c	18.444
_cell_angle_alpha	90
_cell_angle_beta	90
_cell_angle_gamma	90
loop_
_atom_site_label
_atom_site_type_symbol
_atom_site_fract_x
_atom_site_fract_y
_atom_site_fract_z
_atom_site_charge
Mof_Zn	Zn	0.83356	0.41811	0.22618	1.238
Mof_Zn	Zn	0.67107	0.14032	0.31122	1.25
Mof_Zn	Zn	0.69176	0.37721	0.54608	1.224
Mof_P 	P 	0.6835	0.36368	0.36819	0.517
Mof_H 	H 	0.583	0.408	0.336	-0.049
Mof_P 	P 	0.768	0.21058	0.15344	0.486
Mof_H 	H 	0.673	0.239	0.107	-0.036
Mof_P 	P 	0.5919	0.52201	0.14218	0.553
Mof_H 	H 	0.551	0.434	0.124	-0.064
Mof_P 	P 	0.0458	0.56397	0.15954	0.471
Mof_H 	H 	0.016	0.638	0.203	-0.074
Mof_O 	O 	0.8039	0.4005	0.3298	-0.47
Mof_O 	O 	0.8551	0.2922	0.1849	-0.473
Mof_O 	O 	0.7014	0.5089	0.2006	-0.482
Mof_O 	O 	0.002	0.4834	0.2095	-0.447
Mof_O 	O 	0.6437	0.2593	0.3632	-0.487
Mof_O 	O 	0.6924	0.1516	0.2079	-0.466
Mof_O 	O 	0.1939	0.5562	0.146	-0.434
Mof_O 	O 	0.5054	0.6145	0.1609	-0.293
Mof_O 	O 	0.5205	0.0435	0.3105	-0.297
Mof_O 	O 	0.6732	0.3981	0.4435	-0.464
Mof_O 	O 	0.6406	0.5705	0.0762	-0.486
Mof_O 	O 	0.9659	0.5716	0.0902	-0.481
Mof_O 	O 	0.8567	0.1459	0.1067	-0.45
Mof_H 	H 	0.85	0.0885	0.12	0.278
Mof_N 	N 	0.7005	0.224	0.569	-0.198
Mof_N 	N 	0.6993	0.0406	0.5947	-0.085
Mof_C 	C 	0.5719	0.18	0.5431	-0.065
Mof_H 	H 	0.5651	0.1867	0.4908	0.043
Mof_H 	H 	0.4968	0.2141	0.565	0.024
Mof_C 	C 	0.569	0.0701	0.5642	-0.075
Mof_H 	H 	0.4989	0.0589	0.5997	0.069
Mof_H 	H 	0.5493	0.0304	0.5218	0.073
Mof_C 	C 	0.8133	0.1752	0.5316	-0.04
Mof_H 	H 	0.897	0.2008	0.5504	0.033
Mof_H 	H 	0.8093	0.1904	0.4802	0.021
Mof_C 	C 	0.81	0.0637	0.5417	-0.086
Mof_H 	H 	0.793	0.0314	0.4957	0.081
Mof_H 	H 	0.8952	0.0406	0.5603	0.071
Mof_C 	C 	0.7169	0.2062	0.6478	-0.066
Mof_H 	H 	0.6417	0.234	0.674	0.034
Mof_H 	H 	0.7981	0.2377	0.665	0.047
Mof_C 	C 	0.7247	0.0936	0.6618	-0.064
Mof_H 	H 	0.8127	0.0766	0.6802	0.06
Mof_H 	H 	0.6588	0.075	0.6979	0.059
Mof_Zn	Zn	0.66644	0.58189	0.72618	1.238
Mof_Zn	Zn	0.82893	0.85968	0.81122	1.249
Mof_Zn	Zn	0.80824	0.62279	0.04608	1.223
Mof_P 	P 	0.8165	0.63632	0.86819	0.516
Mof_H 	H 	0.917	0.592	0.836	-0.05
Mof_P 	P 	0.732	0.78942	0.65344	0.485
Mof_H 	H 	0.827	0.761	0.607	-0.037
Mof_P 	P 	0.9081	0.47799	0.64218	0.552
Mof_H 	H 	0.949	0.566	0.624	-0.064
Mof_P 	P 	0.4542	0.43603	0.65954	0.471
Mof_H 	H 	0.484	0.362	0.703	-0.074
Mof_O 	O 	0.6961	0.5995	0.8298	-0.47
Mof_O 	O 	0.6449	0.7078	0.6849	-0.472
Mof_O 	O 	0.7986	0.4911	0.7006	-0.482
Mof_O 	O 	0.498	0.5166	0.7095	-0.447
Mof_O 	O 	0.8563	0.7407	0.8632	-0.486
Mof_O 	O 	0.8076	0.8484	0.7079	-0.466
Mof_O 	O 	0.3061	0.4438	0.646	-0.434
Mof_O 	O 	0.9946	0.3855	0.6609	-0.294
Mof_O 	O 	0.9795	0.9565	0.8105	-0.294
Mof_O 	O 	0.8268	0.6019	0.9435	-0.464
Mof_O 	O 	0.8594	0.4295	0.5762	-0.486
Mof_O 	O 	0.5341	0.4284	0.5902	-0.481
Mof_O 	O 	0.6433	0.8541	0.6067	-0.45
Mof_H 	H 	0.65	0.9115	0.62	0.279
Mof_N 	N 	0.7995	0.776	0.069	-0.197
Mof_N 	N 	0.8007	0.9594	0.0947	-0.084
Mof_C 	C 	0.9281	0.82	0.0431	-0.065
Mof_H 	H 	0.9349	0.8133	0.9908	0.043
Mof_H 	H 	0.0032	0.7859	0.065	0.023
Mof_C 	C 	0.931	0.9299	0.0642	-0.072
Mof_H 	H 	0.0011	0.9411	0.0997	0.067
Mof_H 	H 	0.9507	0.9696	0.0218	0.072
Mof_C 	C 	0.6867	0.8248	0.0316	-0.04
Mof_H 	H 	0.603	0.7992	0.0504	0.034
Mof_H 	H 	0.6907	0.8096	0.9802	0.021
Mof_C 	C 	0.69	0.9363	0.0417	-0.086
Mof_H 	H 	0.707	0.9686	0.9957	0.082
Mof_H 	H 	0.6048	0.9594	0.0603	0.072
Mof_C 	C 	0.7831	0.7938	0.1478	-0.066
Mof_H 	H 	0.8583	0.766	0.174	0.034
Mof_H 	H 	0.7019	0.7623	0.165	0.047
Mof_C 	C 	0.7753	0.9064	0.1618	-0.064
Mof_H 	H 	0.6873	0.9234	0.1802	0.061
Mof_H 	H 	0.8412	0.925	0.1979	0.06
Mof_Zn	Zn	0.16644	0.91811	0.27382	1.237
Mof_Zn	Zn	0.32893	0.64032	0.18878	1.249
Mof_Zn	Zn	0.30824	0.87721	0.95392	1.222
Mof_P 	P 	0.3165	0.86368	0.13181	0.516
Mof_H 	H 	0.417	0.908	0.164	-0.05
Mof_P 	P 	0.232	0.71058	0.34656	0.485
Mof_H 	H 	0.327	0.739	0.393	-0.038
Mof_P 	P 	0.4081	0.02201	0.35782	0.552
Mof_H 	H 	0.449	0.934	0.376	-0.064
Mof_P 	P 	0.9542	0.06397	0.34046	0.467
Mof_H 	H 	0.984	0.138	0.297	-0.074
Mof_O 	O 	0.1961	0.9005	0.1702	-0.47
Mof_O 	O 	0.1449	0.7922	0.3151	-0.473
Mof_O 	O 	0.2986	0.0089	0.2994	-0.481
Mof_O 	O 	0.998	0.9834	0.2905	-0.445
Mof_O 	O 	0.3563	0.7593	0.1368	-0.487
Mof_O 	O 	0.3076	0.6516	0.2921	-0.466
Mof_O 	O 	0.8061	0.0562	0.354	-0.434
Mof_O 	O 	0.4946	0.1145	0.3391	-0.293
Mof_O 	O 	0.4795	0.5435	0.1895	-0.297
Mof_O 	O 	0.3268	0.8981	0.0565	-0.464
Mof_O 	O 	0.3594	0.0705	0.4238	-0.485
Mof_O 	O 	0.0341	0.0716	0.4098	-0.478
Mof_O 	O 	0.1433	0.6459	0.3933	-0.45
Mof_H 	H 	0.15	0.5885	0.38	0.279
Mof_N 	N 	0.2995	0.724	0.931	-0.198
Mof_N 	N 	0.3007	0.5406	0.9053	-0.084
Mof_C 	C 	0.4281	0.68	0.9569	-0.064
Mof_H 	H 	0.4349	0.6867	0.0092	0.043
Mof_H 	H 	0.5032	0.7141	0.935	0.024
Mof_C 	C 	0.431	0.5701	0.9358	-0.075
Mof_H 	H 	0.5011	0.5589	0.9003	0.069
Mof_H 	H 	0.4507	0.5304	0.9782	0.073
Mof_C 	C 	0.1867	0.6752	0.9684	-0.04
Mof_H 	H 	0.103	0.7008	0.9496	0.033
Mof_H 	H 	0.1907	0.6904	0.0198	0.021
Mof_C 	C 	0.19	0.5637	0.9583	-0.086
Mof_H 	H 	0.207	0.5314	0.0043	0.082
Mof_H 	H 	0.1048	0.5406	0.9397	0.072
Mof_C 	C 	0.2831	0.7062	0.8522	-0.066
Mof_H 	H 	0.3583	0.734	0.826	0.034
Mof_H 	H 	0.2019	0.7377	0.835	0.047
Mof_C 	C 	0.2753	0.5936	0.8382	-0.064
Mof_H 	H 	0.1873	0.5766	0.8198	0.06
Mof_H 	H 	0.3412	0.575	0.8021	0.059
Mof_Zn	Zn	0.33356	0.08189	0.77382	1.238
Mof_Zn	Zn	0.17107	0.35968	0.68878	1.249
Mof_Zn	Zn	0.19176	0.12279	0.45392	1.223
Mof_P 	P 	0.1835	0.13632	0.63181	0.516
Mof_H 	H 	0.083	0.092	0.664	-0.049
Mof_P 	P 	0.268	0.28942	0.84656	0.485
Mof_H 	H 	0.173	0.261	0.893	-0.037
Mof_P 	P 	0.0919	0.97799	0.85782	0.548
Mof_H 	H 	0.051	0.066	0.876	-0.062
Mof_P 	P 	0.5458	0.93603	0.84046	0.471
Mof_H 	H 	0.516	0.862	0.797	-0.074
Mof_O 	O 	0.3039	0.0995	0.6702	-0.47
Mof_O 	O 	0.3551	0.2078	0.8151	-0.472
Mof_O 	O 	0.2014	0.9911	0.7994	-0.482
Mof_O 	O 	0.502	0.0166	0.7905	-0.447
Mof_O 	O 	0.1437	0.2407	0.6368	-0.486
Mof_O 	O 	0.1924	0.3484	0.7921	-0.466
Mof_O 	O 	0.6939	0.9438	0.854	-0.434
Mof_O 	O 	0.0054	0.8855	0.8391	-0.295
Mof_O 	O 	0.0205	0.4565	0.6895	-0.297
Mof_O 	O 	0.1732	0.1019	0.5565	-0.464
Mof_O 	O 	0.1406	0.9295	0.9238	-0.486
Mof_O 	O 	0.4659	0.9284	0.9098	-0.481
Mof_O 	O 	0.3567	0.3541	0.8933	-0.449
Mof_H 	H 	0.35	0.4115	0.88	0.279
Mof_N 	N 	0.2005	0.276	0.431	-0.198
Mof_N 	N 	0.1993	0.4594	0.4053	-0.084
Mof_C 	C 	0.0719	0.32	0.4569	-0.062
Mof_H 	H 	0.0651	0.3133	0.5092	0.042
Mof_H 	H 	0.9968	0.2859	0.435	0.022
Mof_C 	C 	0.069	0.4299	0.4358	-0.075
Mof_H 	H 	0.9989	0.4411	0.4003	0.068
Mof_H 	H 	0.0493	0.4696	0.4782	0.073
Mof_C 	C 	0.3133	0.3248	0.4684	-0.04
Mof_H 	H 	0.397	0.2992	0.4496	0.034
Mof_H 	H 	0.3093	0.3096	0.5198	0.021
Mof_C 	C 	0.31	0.4363	0.4583	-0.086
Mof_H 	H 	0.293	0.4686	0.5043	0.082
Mof_H 	H 	0.3952	0.4594	0.4397	0.072
Mof_C 	C 	0.2169	0.2938	0.3522	-0.066
Mof_H 	H 	0.1417	0.266	0.326	0.034
Mof_H 	H 	0.2981	0.2623	0.335	0.047
Mof_C 	C 	0.2247	0.4064	0.3382	-0.064
Mof_H 	H 	0.3127	0.4234	0.3198	0.061
Mof_H 	H 	0.1588	0.425	0.3021	0.059
_end
