data_functionalizedCrystal
_audit_creation_method	'EQeq! by Chris Wilmer'
_symmetry_space_group_name_H-M	'P1'
_symmetry_Int_Tables_number	1
_symmetry_cell_setting	triclinic
loop_
_symmetry_equiv_pos_as_xyz
  x,y,z
_cell_length_a	14.7162
_cell_length_b	14.716
_cell_length_c	14.716
_cell_angle_alpha	109.471
_cell_angle_beta	109.471
_cell_angle_gamma	109.471
loop_
_atom_site_label
_atom_site_type_symbol
_atom_site_fract_x
_atom_site_fract_y
_atom_site_fract_z
_atom_site_charge
Mof_Zn	Zn	0.25	0.5	0.75	1.173
Mof_Zn	Zn	0.75	0.5	0.25	1.173
Mof_Zn	Zn	0.75	0.25	0.5	1.173
Mof_Zn	Zn	0.5	0.75	0.25	1.173
Mof_Zn	Zn	0.25	0.75	0.5	1.173
Mof_Zn	Zn	0.5	0.25	0.75	1.173
Mof_H 	H 	0.717	0.4864	0.9578	0.059
Mof_H 	H 	0.4177	0.5188	0.6543	-0.006
Mof_H 	H 	0.4945	0.4615	0.1156	0.11
Mof_H 	H 	0.5385	0.033	0.6541	0.106
Mof_H 	H 	0.1355	0.8989	0.4812	0.011
Mof_H 	H 	0.3789	0.3459	0.8844	0.102
Mof_H 	H 	0.3436	0.8199	0.2685	0.081
Mof_H 	H 	0.4177	0.6543	0.5188	-0.005
Mof_H 	H 	0.7315	0.0751	0.5514	0.051
Mof_H 	H 	0.6543	0.4177	0.5188	-0.005
Mof_H 	H 	0.033	0.5385	0.6541	0.106
Mof_H 	H 	0.5385	0.6541	0.033	0.106
Mof_H 	H 	0.0422	0.5286	0.7592	0.095
Mof_H 	H 	0.5136	0.4714	0.2306	0.103
Mof_H 	H 	0.4486	0.5237	0.1801	0.086
Mof_H 	H 	0.2685	0.8199	0.3436	0.081
Mof_H 	H 	0.8199	0.3436	0.2685	0.081
Mof_H 	H 	0.1156	0.4945	0.4615	0.111
Mof_H 	H 	0.4714	0.5136	0.2306	0.103
Mof_H 	H 	0.8844	0.3459	0.3789	0.102
Mof_H 	H 	0.2408	0.283	0.7694	0.101
Mof_H 	H 	0.4812	0.1355	0.8989	0.011
Mof_H 	H 	0.4714	0.2306	0.5136	0.103
Mof_H 	H 	0.0751	0.7315	0.5514	0.051
Mof_H 	H 	0.7634	0.8645	0.3457	-0.009
Mof_H 	H 	0.0422	0.7592	0.5286	0.095
Mof_H 	H 	0.8989	0.1355	0.4812	0.011
Mof_H 	H 	0.7694	0.283	0.2408	0.101
Mof_H 	H 	0.3457	0.8645	0.7634	-0.009
Mof_H 	H 	0.4864	0.9578	0.717	0.06
Mof_H 	H 	0.5055	0.6211	0.967	0.058
Mof_H 	H 	0.5237	0.4486	0.1801	0.086
Mof_H 	H 	0.8199	0.2685	0.3436	0.081
Mof_H 	H 	0.1801	0.4486	0.5237	0.086
Mof_H 	H 	0.8989	0.4812	0.1355	0.011
Mof_H 	H 	0.9249	0.6564	0.4763	0.067
Mof_H 	H 	0.6541	0.5385	0.033	0.106
Mof_H 	H 	0.2685	0.3436	0.8199	0.081
Mof_H 	H 	0.7315	0.5514	0.0751	0.051
Mof_H 	H 	0.7592	0.0422	0.5286	0.095
Mof_H 	H 	0.2408	0.7694	0.283	0.101
Mof_H 	H 	0.3436	0.2685	0.8199	0.081
Mof_H 	H 	0.6564	0.9249	0.4763	0.067
Mof_H 	H 	0.4864	0.717	0.9578	0.06
Mof_H 	H 	0.5514	0.0751	0.7315	0.051
Mof_H 	H 	0.4763	0.6564	0.9249	0.067
Mof_H 	H 	0.6541	0.033	0.5385	0.106
Mof_H 	H 	0.9578	0.717	0.4864	0.06
Mof_H 	H 	0.4486	0.1801	0.5237	0.086
Mof_H 	H 	0.1011	0.5823	0.2366	-0.012
Mof_H 	H 	0.2366	0.5823	0.1011	-0.012
Mof_H 	H 	0.7592	0.5286	0.0422	0.095
Mof_H 	H 	0.9578	0.4864	0.717	0.06
Mof_H 	H 	0.283	0.2408	0.7694	0.101
Mof_H 	H 	0.3457	0.7634	0.8645	-0.009
Mof_H 	H 	0.5188	0.6543	0.4177	-0.005
Mof_H 	H 	0.6564	0.4763	0.9249	0.067
Mof_H 	H 	0.2366	0.1011	0.5823	-0.012
Mof_H 	H 	0.3459	0.3789	0.8844	0.102
Mof_H 	H 	0.6543	0.5188	0.4177	-0.005
Mof_H 	H 	0.5286	0.7592	0.0422	0.095
Mof_H 	H 	0.1011	0.2366	0.5823	-0.012
Mof_H 	H 	0.5286	0.0422	0.7592	0.095
Mof_H 	H 	0.967	0.6211	0.5055	0.058
Mof_H 	H 	0.4615	0.1156	0.4945	0.111
Mof_H 	H 	0.717	0.9578	0.4864	0.06
Mof_H 	H 	0.5055	0.967	0.6211	0.058
Mof_H 	H 	0.8645	0.7634	0.3457	-0.009
Mof_H 	H 	0.1355	0.4812	0.8989	0.011
Mof_H 	H 	0.3459	0.8844	0.3789	0.102
Mof_H 	H 	0.2306	0.4714	0.5136	0.103
Mof_H 	H 	0.5823	0.1011	0.2366	-0.012
Mof_H 	H 	0.4812	0.8989	0.1355	0.011
Mof_H 	H 	0.6211	0.5055	0.967	0.058
Mof_H 	H 	0.4763	0.9249	0.6564	0.067
Mof_H 	H 	0.8844	0.3789	0.3459	0.102
Mof_H 	H 	0.7634	0.3457	0.8645	-0.009
Mof_H 	H 	0.8645	0.3457	0.7634	-0.009
Mof_H 	H 	0.5237	0.1801	0.4486	0.086
Mof_H 	H 	0.0751	0.5514	0.7315	0.051
Mof_H 	H 	0.9249	0.4763	0.6564	0.067
Mof_H 	H 	0.283	0.7694	0.2408	0.101
Mof_H 	H 	0.5188	0.4177	0.6543	-0.005
Mof_H 	H 	0.6211	0.967	0.5055	0.058
Mof_H 	H 	0.1801	0.5237	0.4486	0.086
Mof_H 	H 	0.033	0.6541	0.5385	0.106
Mof_H 	H 	0.1156	0.4615	0.4945	0.111
Mof_H 	H 	0.4615	0.4945	0.1156	0.111
Mof_H 	H 	0.5514	0.7315	0.0751	0.051
Mof_H 	H 	0.4945	0.1156	0.4615	0.111
Mof_H 	H 	0.3789	0.8844	0.3459	0.102
Mof_H 	H 	0.2306	0.5136	0.4714	0.103
Mof_H 	H 	0.967	0.5055	0.6211	0.058
Mof_H 	H 	0.5136	0.2306	0.4714	0.103
Mof_H 	H 	0.5823	0.2366	0.1011	-0.012
Mof_H 	H 	0.7694	0.2408	0.283	0.101
Mof_C 	C 	0.62769	0.62769	0.24946	0.252
Mof_C 	C 	0.78917	0.73091	0.31512	-0.025
Mof_C 	C 	0.24946	0.62769	0.62769	0.252
Mof_C 	C 	0.37823	0.75054	0.37823	0.247
Mof_C 	C 	0.68488	0.47405	0.41579	-0.025
Mof_C 	C 	0.26909	0.58421	0.05826	0.014
Mof_C 	C 	0.48643	0.67531	-0	-0.558
Mof_C 	C 	0.81112	0.32469	0.32469	-0.684
Mof_C 	C 	-4.63397e-17	0.62177	0.37231	0.24
Mof_C 	C 	0.52595	0.21083	0.94174	-0.063
Mof_C 	C 	0.94174	0.52595	0.21083	-0.063
Mof_C 	C 	0.47405	0.68488	0.41579	-0.025
Mof_C 	C 	0.37231	0.62177	-0	0.24
Mof_C 	C 	0.18888	0.51357	0.51357	-0.706
Mof_C 	C 	0.58421	0.05826	0.26909	0.014
Mof_C 	C 	0.68488	0.41579	0.47405	-0.025
Mof_C 	C 	0.51357	0.51357	0.18888	-0.706
Mof_C 	C 	0.48643	0	0.67531	-0.558
Mof_C 	C 	-1.15849e-17	0.37231	0.62177	0.24
Mof_C 	C 	0.58421	0.26909	0.05826	0.014
Mof_C 	C 	0.62177	-4.63397e-17	0.37231	0.24
Mof_C 	C 	0.67531	0	0.48643	-0.558
Mof_C 	C 	0.26909	0.05826	0.58421	0.014
Mof_C 	C 	0.32469	0.32469	0.81112	-0.684
Mof_C 	C 	0.94174	0.21083	0.52595	-0.063
Mof_C 	C 	0.41579	0.68488	0.47405	-0.025
Mof_C 	C 	0.67531	0.48643	-0	-0.558
Mof_C 	C 	0.51357	0.18888	0.51357	-0.706
Mof_C 	C 	0.31512	0.73091	0.78917	-0.025
Mof_C 	C 	0.37231	0	0.62177	0.24
Mof_C 	C 	0.21083	0.94174	0.52595	-0.063
Mof_C 	C 	0.62769	0.24946	0.62769	0.252
Mof_C 	C 	0.05826	0.58421	0.26909	0.014
Mof_C 	C 	0.52595	0.94174	0.21083	-0.063
Mof_C 	C 	0.41579	0.47405	0.68488	-0.025
Mof_C 	C 	0.47405	0.41579	0.68488	-0.025
Mof_C 	C 	0.75054	0.37823	0.37823	0.247
Mof_C 	C 	0.78917	0.31512	0.73091	-0.025
Mof_C 	C 	0.21083	0.52595	0.94174	-0.063
Mof_C 	C 	0.05826	0.26909	0.58421	0.014
Mof_C 	C 	0.32469	0.81112	0.32469	-0.684
Mof_C 	C 	0.73091	0.31512	0.78917	-0.025
Mof_C 	C 	-8.10945e-17	0.67531	0.48643	-0.558
Mof_C 	C 	0.62177	0.37231	-0	0.24
Mof_C 	C 	-2.31699e-17	0.48643	0.67531	-0.558
Mof_C 	C 	0.37823	0.37823	0.75054	0.247
Mof_C 	C 	0.31512	0.78917	0.73091	-0.025
Mof_C 	C 	0.73091	0.78917	0.31512	-0.025
Mof_N 	N 	0.28205	0.90639	0.55926	-0.328
Mof_N 	N 	0.62434	0.71795	0.27721	-0.329
Mof_N 	N 	0.27721	0.71795	0.62434	-0.329
Mof_N 	N 	0.27721	0.62434	0.71795	-0.329
Mof_N 	N 	0.65287	0.37566	0.09361	-0.331
Mof_N 	N 	0.37566	0.09361	0.65287	-0.331
Mof_N 	N 	0.71795	0.62434	0.27721	-0.329
Mof_N 	N 	0.34713	0.44074	0.72279	-0.328
Mof_N 	N 	0.65287	0.09361	0.37566	-0.331
Mof_N 	N 	0.72279	0.44074	0.34713	-0.328
Mof_N 	N 	0.09361	0.65287	0.37566	-0.331
Mof_N 	N 	0.62434	0.27721	0.71795	-0.329
Mof_N 	N 	0.90639	0.55926	0.28205	-0.328
Mof_N 	N 	0.34713	0.72279	0.44074	-0.328
Mof_N 	N 	0.28205	0.55926	0.90639	-0.328
Mof_N 	N 	0.55926	0.28205	0.90639	-0.328
Mof_N 	N 	0.44074	0.34713	0.72279	-0.328
Mof_N 	N 	0.09361	0.37566	0.65287	-0.331
Mof_N 	N 	0.90639	0.28205	0.55926	-0.328
Mof_N 	N 	0.55926	0.90639	0.28205	-0.328
Mof_N 	N 	0.37566	0.65287	0.09361	-0.331
Mof_N 	N 	0.44074	0.72279	0.34713	-0.328
Mof_N 	N 	0.71795	0.27721	0.62434	-0.329
Mof_N 	N 	0.72279	0.34713	0.44074	-0.328
_end
