# CIF file generated by openbabel 3.1.0, see https://openbabel.org
data_I
_chemical_name_common 'image0'
_cell_length_a 16.6995
_cell_length_b 16.6995
_cell_length_c 26.7579
_cell_angle_alpha 90
_cell_angle_beta 90
_cell_angle_gamma 90
_space_group_name_H-M_alt 'P 1'
_space_group_name_Hall 'P 1'
loop_
    _symmetry_equiv_pos_as_xyz
    x,y,z
loop_
    _atom_site_label
    _atom_site_type_symbol
    _atom_site_fract_x
    _atom_site_fract_y
    _atom_site_fract_z
    _atom_site_occupancy
    C1       C        0.50140    0.33670    0.79570    1.000
    C2       C        0.50280    0.27370    0.75932    1.000
    C3       C        0.43750    0.26430    0.72720    1.000
    H1       H        0.39400    0.29890    0.72940    1.000
    C4       C        0.43780    0.20300    0.69210    1.000
    H2       H        0.39480    0.19830    0.67010    1.000
    C5       C        0.50030    0.14890    0.68877    1.000
    C6       C        0.56760    0.16120    0.72090    1.000
    H3       H        0.61160    0.12730    0.71840    1.000
    C7       C        0.56870    0.22180    0.75540    1.000
    H4       H        0.61290    0.22860    0.77610    1.000
    C8       C        0.49970    0.07650    0.65353    1.000
    C9       C        0.57480    0.07610    0.62000    1.000
    H5       H        0.57510    0.12360    0.59920    1.000
    H6       H        0.62240    0.07700    0.64070    1.000
    H7       H        0.54700    0.00020    0.70750    1.000
    C10      C        0.42420    0.07500    0.62080    1.000
    H8       H        0.42260    0.12250    0.60000    1.000
    H9       H        0.37700    0.07490    0.64190    1.000
    C11      C        0.57590    0.00140    0.58692    1.000
    H10      H        0.50090    0.95310    0.53390    1.000
    C12      C        0.85380    0.99270    0.46060    1.000
    C13      C        0.78510    0.99450    0.49320    1.000
    C14      C        0.71200    0.00590    0.47160    1.000
    H11      H        0.70750    0.01230    0.43720    1.000
    C15      C        0.64430    0.00790    0.50180    1.000
    H12      H        0.59430    0.01550    0.48740    1.000
    C16      C        0.65040    0.99860    0.55380    1.000
    C17      C        0.72450    0.99000    0.57370    1.000
    H13      H        0.72960    0.98620    0.60830    1.000
    C18      C        0.79310    0.98660    0.54450    1.000
    H14      H        0.84320    0.97920    0.55900    1.000
    N1       N        0.50240    0.38810    0.82376    1.000
    N2       N        0.90560    0.98950    0.43230    1.000
    C19      C        0.00140    0.83670    0.29570    1.000
    C20      C        0.00280    0.77370    0.25932    1.000
    C21      C        0.93750    0.76430    0.22720    1.000
    H15      H        0.89400    0.79890    0.22940    1.000
    C22      C        0.93780    0.70300    0.19210    1.000
    H16      H        0.89480    0.69830    0.17010    1.000
    C23      C        0.00030    0.64890    0.18877    1.000
    C24      C        0.06760    0.66120    0.22090    1.000
    H17      H        0.11160    0.62730    0.21840    1.000
    C25      C        0.06870    0.72180    0.25540    1.000
    H18      H        0.11290    0.72860    0.27610    1.000
    C26      C        0.99970    0.57650    0.15353    1.000
    C27      C        0.07480    0.57610    0.12000    1.000
    H19      H        0.07510    0.62360    0.09920    1.000
    H20      H        0.12240    0.57700    0.14070    1.000
    H21      H        0.04700    0.50020    0.20750    1.000
    C28      C        0.92420    0.57500    0.12080    1.000
    H22      H        0.92260    0.62250    0.10000    1.000
    H23      H        0.87700    0.57490    0.14190    1.000
    C29      C        0.07590    0.50140    0.08692    1.000
    H24      H        0.00090    0.45310    0.03390    1.000
    C30      C        0.35380    0.49270    0.96060    1.000
    C31      C        0.28510    0.49450    0.99320    1.000
    C32      C        0.21200    0.50590    0.97160    1.000
    H25      H        0.20750    0.51230    0.93720    1.000
    C33      C        0.14430    0.50790    0.00180    1.000
    H26      H        0.09430    0.51550    0.98740    1.000
    C34      C        0.15040    0.49860    0.05380    1.000
    C35      C        0.22450    0.49000    0.07370    1.000
    H27      H        0.22960    0.48620    0.10830    1.000
    C36      C        0.29310    0.48660    0.04450    1.000
    H28      H        0.34320    0.47920    0.05900    1.000
    N3       N        0.00240    0.88810    0.32376    1.000
    N4       N        0.40560    0.48950    0.93230    1.000
    C37      C        0.49860    0.66330    0.79570    1.000
    C38      C        0.49720    0.72630    0.75932    1.000
    C39      C        0.56250    0.73570    0.72720    1.000
    H29      H        0.60600    0.70110    0.72940    1.000
    C40      C        0.56220    0.79700    0.69210    1.000
    H30      H        0.60520    0.80170    0.67010    1.000
    C41      C        0.49970    0.85110    0.68877    1.000
    C42      C        0.43240    0.83880    0.72090    1.000
    H31      H        0.38840    0.87270    0.71840    1.000
    C43      C        0.43130    0.77820    0.75540    1.000
    H32      H        0.38710    0.77140    0.77610    1.000
    C44      C        0.50030    0.92350    0.65353    1.000
    C45      C        0.42520    0.92390    0.62000    1.000
    H33      H        0.42490    0.87640    0.59920    1.000
    H34      H        0.37760    0.92300    0.64070    1.000
    H35      H        0.45300    0.99980    0.70750    1.000
    C46      C        0.57580    0.92500    0.62080    1.000
    H36      H        0.57740    0.87750    0.60000    1.000
    H37      H        0.62300    0.92510    0.64190    1.000
    C47      C        0.42410    0.99860    0.58692    1.000
    H38      H        0.49910    0.04690    0.53390    1.000
    C48      C        0.14620    0.00730    0.46060    1.000
    C49      C        0.21490    0.00550    0.49320    1.000
    C50      C        0.28800    0.99410    0.47160    1.000
    H39      H        0.29250    0.98770    0.43720    1.000
    C51      C        0.35570    0.99210    0.50180    1.000
    H40      H        0.40570    0.98450    0.48740    1.000
    C52      C        0.34960    0.00140    0.55380    1.000
    C53      C        0.27550    0.01000    0.57370    1.000
    H41      H        0.27040    0.01380    0.60830    1.000
    C54      C        0.20690    0.01340    0.54450    1.000
    H42      H        0.15680    0.02080    0.55900    1.000
    N5       N        0.49760    0.61190    0.82376    1.000
    N6       N        0.09440    0.01050    0.43230    1.000
    C55      C        0.99860    0.16330    0.29570    1.000
    C56      C        0.99720    0.22630    0.25932    1.000
    C57      C        0.06250    0.23570    0.22720    1.000
    H43      H        0.10600    0.20110    0.22940    1.000
    C58      C        0.06220    0.29700    0.19210    1.000
    H44      H        0.10520    0.30170    0.17010    1.000
    C59      C        0.99970    0.35110    0.18877    1.000
    C60      C        0.93240    0.33880    0.22090    1.000
    H45      H        0.88840    0.37270    0.21840    1.000
    C61      C        0.93130    0.27820    0.25540    1.000
    H46      H        0.88710    0.27140    0.27610    1.000
    C62      C        0.00030    0.42350    0.15353    1.000
    C63      C        0.92520    0.42390    0.12000    1.000
    H47      H        0.92490    0.37640    0.09920    1.000
    H48      H        0.87760    0.42300    0.14070    1.000
    H49      H        0.95300    0.49980    0.20750    1.000
    C64      C        0.07580    0.42500    0.12080    1.000
    H50      H        0.07740    0.37750    0.10000    1.000
    H51      H        0.12300    0.42510    0.14190    1.000
    C65      C        0.92410    0.49860    0.08692    1.000
    H52      H        0.99910    0.54690    0.03390    1.000
    C66      C        0.64620    0.50730    0.96060    1.000
    C67      C        0.71490    0.50550    0.99320    1.000
    C68      C        0.78800    0.49410    0.97160    1.000
    H53      H        0.79250    0.48770    0.93720    1.000
    C69      C        0.85570    0.49210    0.00180    1.000
    H54      H        0.90570    0.48450    0.98740    1.000
    C70      C        0.84960    0.50140    0.05380    1.000
    C71      C        0.77550    0.51000    0.07370    1.000
    H55      H        0.77040    0.51380    0.10830    1.000
    C72      C        0.70690    0.51340    0.04450    1.000
    H56      H        0.65680    0.52080    0.05900    1.000
    N7       N        0.99760    0.11190    0.32376    1.000
    N8       N        0.59440    0.51050    0.93230    1.000
    C73      C        0.50000    0.00000    0.68620    1.000
    C74      C        0.50000    0.00000    0.55520    1.000
    C75      C        0.00000    0.50000    0.18620    1.000
    C76      C        0.00000    0.50000    0.05520    1.000
    Ag1      Ag       0.50000    0.50000    0.87186    1.000
    Ag2      Ag       0.00000    0.00000    0.37186    1.000
    C77      C        0.33670    0.49860    0.20430    1.000
    C78      C        0.27370    0.49720    0.24068    1.000
    C79      C        0.26430    0.56250    0.27280    1.000
    H57      H        0.29890    0.60600    0.27060    1.000
    C80      C        0.20300    0.56220    0.30790    1.000
    H58      H        0.19830    0.60520    0.32990    1.000
    C81      C        0.14890    0.49970    0.31123    1.000
    C82      C        0.16120    0.43240    0.27910    1.000
    H59      H        0.12730    0.38840    0.28160    1.000
    C83      C        0.22180    0.43130    0.24460    1.000
    H60      H        0.22860    0.38710    0.22390    1.000
    C84      C        0.07650    0.50030    0.34647    1.000
    C85      C        0.07610    0.42520    0.38000    1.000
    H61      H        0.12360    0.42490    0.40080    1.000
    H62      H        0.07700    0.37760    0.35930    1.000
    H63      H        0.00020    0.45300    0.29250    1.000
    C86      C        0.07500    0.57580    0.37920    1.000
    H64      H        0.12250    0.57740    0.40000    1.000
    H65      H        0.07490    0.62300    0.35810    1.000
    C87      C        0.00140    0.42410    0.41308    1.000
    H66      H        0.95310    0.49910    0.46610    1.000
    C88      C        0.99270    0.14620    0.53940    1.000
    C89      C        0.99450    0.21490    0.50680    1.000
    C90      C        0.00590    0.28800    0.52840    1.000
    H67      H        0.01230    0.29250    0.56280    1.000
    C91      C        0.00790    0.35570    0.49820    1.000
    H68      H        0.01550    0.40570    0.51260    1.000
    C92      C        0.99860    0.34960    0.44620    1.000
    C93      C        0.99000    0.27550    0.42630    1.000
    H69      H        0.98620    0.27040    0.39170    1.000
    C94      C        0.98660    0.20690    0.45550    1.000
    H70      H        0.97920    0.15680    0.44100    1.000
    N9       N        0.38810    0.49760    0.17624    1.000
    N10      N        0.98950    0.09440    0.56770    1.000
    C95      C        0.83670    0.99860    0.70430    1.000
    C96      C        0.77370    0.99720    0.74068    1.000
    C97      C        0.76430    0.06250    0.77280    1.000
    H71      H        0.79890    0.10600    0.77060    1.000
    C98      C        0.70300    0.06220    0.80790    1.000
    H72      H        0.69830    0.10520    0.82990    1.000
    C99      C        0.64890    0.99970    0.81123    1.000
    C100     C        0.66120    0.93240    0.77910    1.000
    H73      H        0.62730    0.88840    0.78160    1.000
    C101     C        0.72180    0.93130    0.74460    1.000
    H74      H        0.72860    0.88710    0.72390    1.000
    C102     C        0.57650    0.00030    0.84647    1.000
    C103     C        0.57610    0.92520    0.88000    1.000
    H75      H        0.62360    0.92490    0.90080    1.000
    H76      H        0.57700    0.87760    0.85930    1.000
    H77      H        0.50020    0.95300    0.79250    1.000
    C104     C        0.57500    0.07580    0.87920    1.000
    H78      H        0.62250    0.07740    0.90000    1.000
    H79      H        0.57490    0.12300    0.85810    1.000
    C105     C        0.50140    0.92410    0.91308    1.000
    H80      H        0.45310    0.99910    0.96610    1.000
    C106     C        0.49270    0.64620    0.03940    1.000
    C107     C        0.49450    0.71490    0.00680    1.000
    C108     C        0.50590    0.78800    0.02840    1.000
    H81      H        0.51230    0.79250    0.06280    1.000
    C109     C        0.50790    0.85570    0.99820    1.000
    H82      H        0.51550    0.90570    0.01260    1.000
    C110     C        0.49860    0.84960    0.94620    1.000
    C111     C        0.49000    0.77550    0.92630    1.000
    H83      H        0.48620    0.77040    0.89170    1.000
    C112     C        0.48660    0.70690    0.95550    1.000
    H84      H        0.47920    0.65680    0.94100    1.000
    N11      N        0.88810    0.99760    0.67624    1.000
    N12      N        0.48950    0.59440    0.06770    1.000
    C113     C        0.66330    0.50140    0.20430    1.000
    C114     C        0.72630    0.50280    0.24068    1.000
    C115     C        0.73570    0.43750    0.27280    1.000
    H85      H        0.70110    0.39400    0.27060    1.000
    C116     C        0.79700    0.43780    0.30790    1.000
    H86      H        0.80170    0.39480    0.32990    1.000
    C117     C        0.85110    0.50030    0.31123    1.000
    C118     C        0.83880    0.56760    0.27910    1.000
    H87      H        0.87270    0.61160    0.28160    1.000
    C119     C        0.77820    0.56870    0.24460    1.000
    H88      H        0.77140    0.61290    0.22390    1.000
    C120     C        0.92350    0.49970    0.34647    1.000
    C121     C        0.92390    0.57480    0.38000    1.000
    H89      H        0.87640    0.57510    0.40080    1.000
    H90      H        0.92300    0.62240    0.35930    1.000
    H91      H        0.99980    0.54700    0.29250    1.000
    C122     C        0.92500    0.42420    0.37920    1.000
    H92      H        0.87750    0.42260    0.40000    1.000
    H93      H        0.92510    0.37700    0.35810    1.000
    C123     C        0.99860    0.57590    0.41308    1.000
    H94      H        0.04690    0.50090    0.46610    1.000
    C124     C        0.00730    0.85380    0.53940    1.000
    C125     C        0.00550    0.78510    0.50680    1.000
    C126     C        0.99410    0.71200    0.52840    1.000
    H95      H        0.98770    0.70750    0.56280    1.000
    C127     C        0.99210    0.64430    0.49820    1.000
    H96      H        0.98450    0.59430    0.51260    1.000
    C128     C        0.00140    0.65040    0.44620    1.000
    C129     C        0.01000    0.72450    0.42630    1.000
    H97      H        0.01380    0.72960    0.39170    1.000
    C130     C        0.01340    0.79310    0.45550    1.000
    H98      H        0.02080    0.84320    0.44100    1.000
    N13      N        0.61190    0.50240    0.17624    1.000
    N14      N        0.01050    0.90560    0.56770    1.000
    C131     C        0.16330    0.00140    0.70430    1.000
    C132     C        0.22630    0.00280    0.74068    1.000
    C133     C        0.23570    0.93750    0.77280    1.000
    H99      H        0.20110    0.89400    0.77060    1.000
    C134     C        0.29700    0.93780    0.80790    1.000
    H100     H        0.30170    0.89480    0.82990    1.000
    C135     C        0.35110    0.00030    0.81123    1.000
    C136     C        0.33880    0.06760    0.77910    1.000
    H101     H        0.37270    0.11160    0.78160    1.000
    C137     C        0.27820    0.06870    0.74460    1.000
    H102     H        0.27140    0.11290    0.72390    1.000
    C138     C        0.42350    0.99970    0.84647    1.000
    C139     C        0.42390    0.07480    0.88000    1.000
    H103     H        0.37640    0.07510    0.90080    1.000
    H104     H        0.42300    0.12240    0.85930    1.000
    H105     H        0.49980    0.04700    0.79250    1.000
    C140     C        0.42500    0.92420    0.87920    1.000
    H106     H        0.37750    0.92260    0.90000    1.000
    H107     H        0.42510    0.87700    0.85810    1.000
    C141     C        0.49860    0.07590    0.91308    1.000
    H108     H        0.54690    0.00090    0.96610    1.000
    C142     C        0.50730    0.35380    0.03940    1.000
    C143     C        0.50550    0.28510    0.00680    1.000
    C144     C        0.49410    0.21200    0.02840    1.000
    H109     H        0.48770    0.20750    0.06280    1.000
    C145     C        0.49210    0.14430    0.99820    1.000
    H110     H        0.48450    0.09430    0.01260    1.000
    C146     C        0.50140    0.15040    0.94620    1.000
    C147     C        0.51000    0.22450    0.92630    1.000
    H111     H        0.51380    0.22960    0.89170    1.000
    C148     C        0.51340    0.29310    0.95550    1.000
    H112     H        0.52080    0.34320    0.94100    1.000
    N15      N        0.11190    0.00240    0.67624    1.000
    N16      N        0.51050    0.40560    0.06770    1.000
    C149     C        0.00000    0.50000    0.31380    1.000
    C150     C        0.00000    0.50000    0.44480    1.000
    C151     C        0.50000    0.00000    0.81380    1.000
    C152     C        0.50000    0.00000    0.94480    1.000
    Ag3      Ag       0.50000    0.50000    0.12814    1.000
    Ag4      Ag       0.00000    0.00000    0.62814    1.000
    C153     C        0.99860    0.33670    0.95430    1.000
    C154     C        0.99720    0.27370    0.99068    1.000
    C155     C        0.06250    0.26430    0.02280    1.000
    H113     H        0.10600    0.29890    0.02060    1.000
    C156     C        0.06220    0.20300    0.05790    1.000
    H114     H        0.10520    0.19830    0.07990    1.000
    C157     C        0.99970    0.14890    0.06123    1.000
    C158     C        0.93240    0.16120    0.02910    1.000
    H115     H        0.88840    0.12730    0.03160    1.000
    C159     C        0.93130    0.22180    0.99460    1.000
    H116     H        0.88710    0.22860    0.97390    1.000
    C160     C        0.00030    0.07650    0.09647    1.000
    C161     C        0.92520    0.07610    0.13000    1.000
    H117     H        0.92490    0.12360    0.15080    1.000
    H118     H        0.87760    0.07700    0.10930    1.000
    H119     H        0.95300    0.00020    0.04250    1.000
    C162     C        0.07580    0.07500    0.12920    1.000
    H120     H        0.07740    0.12250    0.15000    1.000
    H121     H        0.12300    0.07490    0.10810    1.000
    C163     C        0.92410    0.00140    0.16308    1.000
    H122     H        0.99910    0.95310    0.21610    1.000
    C164     C        0.64620    0.99270    0.28940    1.000
    C165     C        0.71490    0.99450    0.25680    1.000
    C166     C        0.78800    0.00590    0.27840    1.000
    H123     H        0.79250    0.01230    0.31280    1.000
    C167     C        0.85570    0.00790    0.24820    1.000
    H124     H        0.90570    0.01550    0.26260    1.000
    C168     C        0.84960    0.99860    0.19620    1.000
    C169     C        0.77550    0.99000    0.17630    1.000
    H125     H        0.77040    0.98620    0.14170    1.000
    C170     C        0.70690    0.98660    0.20550    1.000
    H126     H        0.65680    0.97920    0.19100    1.000
    N17      N        0.99760    0.38810    0.92624    1.000
    N18      N        0.59440    0.98950    0.31770    1.000
    C171     C        0.49860    0.83670    0.45430    1.000
    C172     C        0.49720    0.77370    0.49068    1.000
    C173     C        0.56250    0.76430    0.52280    1.000
    H127     H        0.60600    0.79890    0.52060    1.000
    C174     C        0.56220    0.70300    0.55790    1.000
    H128     H        0.60520    0.69830    0.57990    1.000
    C175     C        0.49970    0.64890    0.56123    1.000
    C176     C        0.43240    0.66120    0.52910    1.000
    H129     H        0.38840    0.62730    0.53160    1.000
    C177     C        0.43130    0.72180    0.49460    1.000
    H130     H        0.38710    0.72860    0.47390    1.000
    C178     C        0.50030    0.57650    0.59647    1.000
    C179     C        0.42520    0.57610    0.63000    1.000
    H131     H        0.42490    0.62360    0.65080    1.000
    H132     H        0.37760    0.57700    0.60930    1.000
    H133     H        0.45300    0.50020    0.54250    1.000
    C180     C        0.57580    0.57500    0.62920    1.000
    H134     H        0.57740    0.62250    0.65000    1.000
    H135     H        0.62300    0.57490    0.60810    1.000
    C181     C        0.42410    0.50140    0.66308    1.000
    H136     H        0.49910    0.45310    0.71610    1.000
    C182     C        0.14620    0.49270    0.78940    1.000
    C183     C        0.21490    0.49450    0.75680    1.000
    C184     C        0.28800    0.50590    0.77840    1.000
    H137     H        0.29250    0.51230    0.81280    1.000
    C185     C        0.35570    0.50790    0.74820    1.000
    H138     H        0.40570    0.51550    0.76260    1.000
    C186     C        0.34960    0.49860    0.69620    1.000
    C187     C        0.27550    0.49000    0.67630    1.000
    H139     H        0.27040    0.48620    0.64170    1.000
    C188     C        0.20690    0.48660    0.70550    1.000
    H140     H        0.15680    0.47920    0.69100    1.000
    N19      N        0.49760    0.88810    0.42624    1.000
    N20      N        0.09440    0.48950    0.81770    1.000
    C189     C        0.00140    0.66330    0.95430    1.000
    C190     C        0.00280    0.72630    0.99068    1.000
    C191     C        0.93750    0.73570    0.02280    1.000
    H141     H        0.89400    0.70110    0.02060    1.000
    C192     C        0.93780    0.79700    0.05790    1.000
    H142     H        0.89480    0.80170    0.07990    1.000
    C193     C        0.00030    0.85110    0.06123    1.000
    C194     C        0.06760    0.83880    0.02910    1.000
    H143     H        0.11160    0.87270    0.03160    1.000
    C195     C        0.06870    0.77820    0.99460    1.000
    H144     H        0.11290    0.77140    0.97390    1.000
    C196     C        0.99970    0.92350    0.09647    1.000
    C197     C        0.07480    0.92390    0.13000    1.000
    H145     H        0.07510    0.87640    0.15080    1.000
    H146     H        0.12240    0.92300    0.10930    1.000
    H147     H        0.04700    0.99980    0.04250    1.000
    C198     C        0.92420    0.92500    0.12920    1.000
    H148     H        0.92260    0.87750    0.15000    1.000
    H149     H        0.87700    0.92510    0.10810    1.000
    C199     C        0.07590    0.99860    0.16308    1.000
    H150     H        0.00090    0.04690    0.21610    1.000
    C200     C        0.35380    0.00730    0.28940    1.000
    C201     C        0.28510    0.00550    0.25680    1.000
    C202     C        0.21200    0.99410    0.27840    1.000
    H151     H        0.20750    0.98770    0.31280    1.000
    C203     C        0.14430    0.99210    0.24820    1.000
    H152     H        0.09430    0.98450    0.26260    1.000
    C204     C        0.15040    0.00140    0.19620    1.000
    C205     C        0.22450    0.01000    0.17630    1.000
    H153     H        0.22960    0.01380    0.14170    1.000
    C206     C        0.29310    0.01340    0.20550    1.000
    H154     H        0.34320    0.02080    0.19100    1.000
    N21      N        0.00240    0.61190    0.92624    1.000
    N22      N        0.40560    0.01050    0.31770    1.000
    C207     C        0.50140    0.16330    0.45430    1.000
    C208     C        0.50280    0.22630    0.49068    1.000
    C209     C        0.43750    0.23570    0.52280    1.000
    H155     H        0.39400    0.20110    0.52060    1.000
    C210     C        0.43780    0.29700    0.55790    1.000
    H156     H        0.39480    0.30170    0.57990    1.000
    C211     C        0.50030    0.35110    0.56123    1.000
    C212     C        0.56760    0.33880    0.52910    1.000
    H157     H        0.61160    0.37270    0.53160    1.000
    C213     C        0.56870    0.27820    0.49460    1.000
    H158     H        0.61290    0.27140    0.47390    1.000
    C214     C        0.49970    0.42350    0.59647    1.000
    C215     C        0.57480    0.42390    0.63000    1.000
    H159     H        0.57510    0.37640    0.65080    1.000
    H160     H        0.62240    0.42300    0.60930    1.000
    H161     H        0.54700    0.49980    0.54250    1.000
    C216     C        0.42420    0.42500    0.62920    1.000
    H162     H        0.42260    0.37750    0.65000    1.000
    H163     H        0.37700    0.42510    0.60810    1.000
    C217     C        0.57590    0.49860    0.66308    1.000
    H164     H        0.50090    0.54690    0.71610    1.000
    C218     C        0.85380    0.50730    0.78940    1.000
    C219     C        0.78510    0.50550    0.75680    1.000
    C220     C        0.71200    0.49410    0.77840    1.000
    H165     H        0.70750    0.48770    0.81280    1.000
    C221     C        0.64430    0.49210    0.74820    1.000
    H166     H        0.59430    0.48450    0.76260    1.000
    C222     C        0.65040    0.50140    0.69620    1.000
    C223     C        0.72450    0.51000    0.67630    1.000
    H167     H        0.72960    0.51380    0.64170    1.000
    C224     C        0.79310    0.51340    0.70550    1.000
    H168     H        0.84320    0.52080    0.69100    1.000
    N23      N        0.50240    0.11190    0.42624    1.000
    N24      N        0.90560    0.51050    0.81770    1.000
    C225     C        0.00000    0.00000    0.06380    1.000
    C226     C        0.00000    0.00000    0.19480    1.000
    C227     C        0.50000    0.50000    0.56380    1.000
    C228     C        0.50000    0.50000    0.69480    1.000
    Ag5      Ag       0.00000    0.50000    0.87814    1.000
    Ag6      Ag       0.50000    0.00000    0.37814    1.000
    C229     C        0.16330    0.49860    0.54570    1.000
    C230     C        0.22630    0.49720    0.50932    1.000
    C231     C        0.23570    0.56250    0.47720    1.000
    H169     H        0.20110    0.60600    0.47940    1.000
    C232     C        0.29700    0.56220    0.44210    1.000
    H170     H        0.30170    0.60520    0.42010    1.000
    C233     C        0.35110    0.49970    0.43877    1.000
    C234     C        0.33880    0.43240    0.47090    1.000
    H171     H        0.37270    0.38840    0.46840    1.000
    C235     C        0.27820    0.43130    0.50540    1.000
    H172     H        0.27140    0.38710    0.52610    1.000
    C236     C        0.42350    0.50030    0.40353    1.000
    C237     C        0.42390    0.42520    0.37000    1.000
    H173     H        0.37640    0.42490    0.34920    1.000
    H174     H        0.42300    0.37760    0.39070    1.000
    H175     H        0.49980    0.45300    0.45750    1.000
    C238     C        0.42500    0.57580    0.37080    1.000
    H176     H        0.37750    0.57740    0.35000    1.000
    H177     H        0.42510    0.62300    0.39190    1.000
    C239     C        0.49860    0.42410    0.33692    1.000
    H178     H        0.54690    0.49910    0.28390    1.000
    C240     C        0.50730    0.14620    0.21060    1.000
    C241     C        0.50550    0.21490    0.24320    1.000
    C242     C        0.49410    0.28800    0.22160    1.000
    H179     H        0.48770    0.29250    0.18720    1.000
    C243     C        0.49210    0.35570    0.25180    1.000
    H180     H        0.48450    0.40570    0.23740    1.000
    C244     C        0.50140    0.34960    0.30380    1.000
    C245     C        0.51000    0.27550    0.32370    1.000
    H181     H        0.51380    0.27040    0.35830    1.000
    C246     C        0.51340    0.20690    0.29450    1.000
    H182     H        0.52080    0.15680    0.30900    1.000
    N25      N        0.11190    0.49760    0.57376    1.000
    N26      N        0.51050    0.09440    0.18230    1.000
    C247     C        0.66330    0.99860    0.04570    1.000
    C248     C        0.72630    0.99720    0.00932    1.000
    C249     C        0.73570    0.06250    0.97720    1.000
    H183     H        0.70110    0.10600    0.97940    1.000
    C250     C        0.79700    0.06220    0.94210    1.000
    H184     H        0.80170    0.10520    0.92010    1.000
    C251     C        0.85110    0.99970    0.93877    1.000
    C252     C        0.83880    0.93240    0.97090    1.000
    H185     H        0.87270    0.88840    0.96840    1.000
    C253     C        0.77820    0.93130    0.00540    1.000
    H186     H        0.77140    0.88710    0.02610    1.000
    C254     C        0.92350    0.00030    0.90353    1.000
    C255     C        0.92390    0.92520    0.87000    1.000
    H187     H        0.87640    0.92490    0.84920    1.000
    H188     H        0.92300    0.87760    0.89070    1.000
    H189     H        0.99980    0.95300    0.95750    1.000
    C256     C        0.92500    0.07580    0.87080    1.000
    H190     H        0.87750    0.07740    0.85000    1.000
    H191     H        0.92510    0.12300    0.89190    1.000
    C257     C        0.99860    0.92410    0.83692    1.000
    H192     H        0.04690    0.99910    0.78390    1.000
    C258     C        0.00730    0.64620    0.71060    1.000
    C259     C        0.00550    0.71490    0.74320    1.000
    C260     C        0.99410    0.78800    0.72160    1.000
    H193     H        0.98770    0.79250    0.68720    1.000
    C261     C        0.99210    0.85570    0.75180    1.000
    H194     H        0.98450    0.90570    0.73740    1.000
    C262     C        0.00140    0.84960    0.80380    1.000
    C263     C        0.01000    0.77550    0.82370    1.000
    H195     H        0.01380    0.77040    0.85830    1.000
    C264     C        0.01340    0.70690    0.79450    1.000
    H196     H        0.02080    0.65680    0.80900    1.000
    N27      N        0.61190    0.99760    0.07376    1.000
    N28      N        0.01050    0.59440    0.68230    1.000
    C265     C        0.83670    0.50140    0.54570    1.000
    C266     C        0.77370    0.50280    0.50932    1.000
    C267     C        0.76430    0.43750    0.47720    1.000
    H197     H        0.79890    0.39400    0.47940    1.000
    C268     C        0.70300    0.43780    0.44210    1.000
    H198     H        0.69830    0.39480    0.42010    1.000
    C269     C        0.64890    0.50030    0.43877    1.000
    C270     C        0.66120    0.56760    0.47090    1.000
    H199     H        0.62730    0.61160    0.46840    1.000
    C271     C        0.72180    0.56870    0.50540    1.000
    H200     H        0.72860    0.61290    0.52610    1.000
    C272     C        0.57650    0.49970    0.40353    1.000
    C273     C        0.57610    0.57480    0.37000    1.000
    H201     H        0.62360    0.57510    0.34920    1.000
    H202     H        0.57700    0.62240    0.39070    1.000
    H203     H        0.50020    0.54700    0.45750    1.000
    C274     C        0.57500    0.42420    0.37080    1.000
    H204     H        0.62250    0.42260    0.35000    1.000
    H205     H        0.57490    0.37700    0.39190    1.000
    C275     C        0.50140    0.57590    0.33692    1.000
    H206     H        0.45310    0.50090    0.28390    1.000
    C276     C        0.49270    0.85380    0.21060    1.000
    C277     C        0.49450    0.78510    0.24320    1.000
    C278     C        0.50590    0.71200    0.22160    1.000
    H207     H        0.51230    0.70750    0.18720    1.000
    C279     C        0.50790    0.64430    0.25180    1.000
    H208     H        0.51550    0.59430    0.23740    1.000
    C280     C        0.49860    0.65040    0.30380    1.000
    C281     C        0.49000    0.72450    0.32370    1.000
    H209     H        0.48620    0.72960    0.35830    1.000
    C282     C        0.48660    0.79310    0.29450    1.000
    H210     H        0.47920    0.84320    0.30900    1.000
    N29      N        0.88810    0.50240    0.57376    1.000
    N30      N        0.48950    0.90560    0.18230    1.000
    C283     C        0.33670    0.00140    0.04570    1.000
    C284     C        0.27370    0.00280    0.00932    1.000
    C285     C        0.26430    0.93750    0.97720    1.000
    H211     H        0.29890    0.89400    0.97940    1.000
    C286     C        0.20300    0.93780    0.94210    1.000
    H212     H        0.19830    0.89480    0.92010    1.000
    C287     C        0.14890    0.00030    0.93877    1.000
    C288     C        0.16120    0.06760    0.97090    1.000
    H213     H        0.12730    0.11160    0.96840    1.000
    C289     C        0.22180    0.06870    0.00540    1.000
    H214     H        0.22860    0.11290    0.02610    1.000
    C290     C        0.07650    0.99970    0.90353    1.000
    C291     C        0.07610    0.07480    0.87000    1.000
    H215     H        0.12360    0.07510    0.84920    1.000
    H216     H        0.07700    0.12240    0.89070    1.000
    H217     H        0.00020    0.04700    0.95750    1.000
    C292     C        0.07500    0.92420    0.87080    1.000
    H218     H        0.12250    0.92260    0.85000    1.000
    H219     H        0.07490    0.87700    0.89190    1.000
    C293     C        0.00140    0.07590    0.83692    1.000
    H220     H        0.95310    0.00090    0.78390    1.000
    C294     C        0.99270    0.35380    0.71060    1.000
    C295     C        0.99450    0.28510    0.74320    1.000
    C296     C        0.00590    0.21200    0.72160    1.000
    H221     H        0.01230    0.20750    0.68720    1.000
    C297     C        0.00790    0.14430    0.75180    1.000
    H222     H        0.01550    0.09430    0.73740    1.000
    C298     C        0.99860    0.15040    0.80380    1.000
    C299     C        0.99000    0.22450    0.82370    1.000
    H223     H        0.98620    0.22960    0.85830    1.000
    C300     C        0.98660    0.29310    0.79450    1.000
    H224     H        0.97920    0.34320    0.80900    1.000
    N31      N        0.38810    0.00240    0.07376    1.000
    N32      N        0.98950    0.40560    0.68230    1.000
    C301     C        0.50000    0.50000    0.43620    1.000
    C302     C        0.50000    0.50000    0.30520    1.000
    C303     C        0.00000    0.00000    0.93620    1.000
    C304     C        0.00000    0.00000    0.80520    1.000
    Ag7      Ag       0.00000    0.50000    0.62186    1.000
    Ag8      Ag       0.50000    0.00000    0.12186    1.000
