data_functionalizedCrystal
_audit_creation_method	'EQeq! by Chris Wilmer'
_symmetry_space_group_name_H-M	'P1'
_symmetry_Int_Tables_number	1
_symmetry_cell_setting	triclinic
loop_
_symmetry_equiv_pos_as_xyz
  x,y,z
_cell_length_a	10.1333
_cell_length_b	18.6979
_cell_length_c	20.4951
_cell_angle_alpha	115.912
_cell_angle_beta	102.231
_cell_angle_gamma	94.4456
loop_
_atom_site_label
_atom_site_type_symbol
_atom_site_fract_x
_atom_site_fract_y
_atom_site_fract_z
_atom_site_charge
Mof_Eu	Eu	0.9411	0.95022	0.3848	2.629
Mof_Eu	Eu	0.68911	0.66772	0.06234	2.679
Mof_Eu	Eu	0.9437	0.43458	0.3848	2.632
Mof_Eu	Eu	0.87323	0.39462	0.06234	2.666
Mof_Eu	Eu	0.0589	0.04978	0.6152	2.63
Mof_Eu	Eu	0.31089	0.33228	0.93766	2.68
Mof_Eu	Eu	0.0563	0.56542	0.6152	2.632
Mof_Eu	Eu	0.12677	0.60538	0.93766	2.666
Mof_Eu	Eu	0.97032	0.22032	0.44064	2.717
Mof_Eu	Eu	0.02968	0.77968	0.55936	2.717
Mof_S 	S 	0.19017	0.13547	0.536	0.94
Mof_S 	S 	0.80175	0.81815	0.22098	0.724
Mof_S 	S 	0.7769	0.0969	0.50558	0.994
Mof_S 	S 	0.95455	0.59355	0.07096	0.89
Mof_S 	S 	0.02439	0.06349	0.31542	0.694
Mof_S 	S 	0.40793	0.77933	0.05382	1.04
Mof_S 	S 	0.84583	0.40053	0.536	0.94
Mof_S 	S 	0.91923	0.40283	0.22098	0.718
Mof_S 	S 	0.22868	0.40868	0.50558	0.994
Mof_S 	S 	0.61641	0.47741	0.07096	0.903
Mof_S 	S 	0.79103	0.25193	0.31542	0.687
Mof_S 	S 	0.14589	0.27449	0.05382	1.039
Mof_S 	S 	0.80983	0.86453	0.464	0.94
Mof_S 	S 	0.19825	0.18185	0.77902	0.724
Mof_S 	S 	0.2231	0.9031	0.49442	0.994
Mof_S 	S 	0.04545	0.40645	0.92904	0.89
Mof_S 	S 	0.97561	0.93651	0.68458	0.694
Mof_S 	S 	0.59207	0.22067	0.94618	1.04
Mof_S 	S 	0.15417	0.59947	0.464	0.94
Mof_S 	S 	0.08077	0.59717	0.77902	0.718
Mof_S 	S 	0.77132	0.59132	0.49442	0.994
Mof_S 	S 	0.38359	0.52259	0.92904	0.903
Mof_S 	S 	0.20897	0.74807	0.68458	0.687
Mof_S 	S 	0.85411	0.72551	0.94618	1.039
Mof_O 	O 	0.9744	0.0378	0.2354	-0.334
Mof_O 	O 	0.4361	0.8357	0.1316	-0.416
Mof_O 	O 	0.5111	0.7299	0.042	-0.706
Mof_O 	O 	0.2718	0.7258	0.0268	-0.657
Mof_O 	O 	0.408	0.8234	0.0104	-0.399
Mof_O 	O 	0.111	0.1452	0.3576	-0.517
Mof_O 	O 	0.76987	0.01717	0.43774	-0.614
Mof_O 	O 	0.07462	0.06242	0.49484	-0.79
Mof_O 	O 	0.20988	0.15658	0.61556	-0.58
Mof_O 	O 	0.92277	0.66557	0.12974	-0.563
Mof_O 	O 	0.14493	0.20203	0.52266	-0.633
Mof_O 	O 	0.0902	0.0008	0.328	-0.528
Mof_O 	O 	0.83338	0.16348	0.49356	-0.627
Mof_O 	O 	0.9072	0.0705	0.352	-0.659
Mof_O 	O 	0.86533	0.09963	0.57406	-0.626
Mof_O 	O 	0.314	0.1172	0.5122	-0.36
Mof_O 	O 	0.63942	0.10412	0.51344	-0.364
Mof_O 	O 	0.9725	0.5325	0.098	-0.6
Mof_O 	O 	0.0819	0.6122	0.0538	-0.565
Mof_O 	O 	0.8123	0.8135	0.1486	-0.505
Mof_O 	O 	0.7497	0.8913	0.2644	-0.498
Mof_O 	O 	0.93681	0.82671	0.27002	-0.518
Mof_O 	O 	0.71137	0.74207	0.20014	-0.514
Mof_O 	O 	0.83557	0.56647	0.00534	-0.588
Mof_O 	O 	0.761	0.1976	0.2354	-0.329
Mof_O 	O 	0.1955	0.2959	0.1316	-0.415
Mof_O 	O 	0.0309	0.3121	0.042	-0.699
Mof_O 	O 	0.255	0.301	0.0268	-0.658
Mof_O 	O 	0.1024	0.187	0.0104	-0.396
Mof_O 	O 	0.7466	0.2124	0.3576	-0.517
Mof_O 	O 	0.16787	0.42057	0.43774	-0.614
Mof_O 	O 	0.92022	0.43242	0.49484	-0.789
Mof_O 	O 	0.90568	0.45898	0.61556	-0.579
Mof_O 	O 	0.70697	0.46417	0.12974	-0.562
Mof_O 	O 	0.87773	0.32063	0.52266	-0.632
Mof_O 	O 	0.7378	0.3272	0.328	-0.527
Mof_O 	O 	0.16018	0.33008	0.49356	-0.627
Mof_O 	O 	0.9448	0.2815	0.352	-0.658
Mof_O 	O 	0.20873	0.47443	0.57406	-0.627
Mof_O 	O 	0.6982	0.395	0.5122	-0.359
Mof_O 	O 	0.37402	0.40932	0.51344	-0.364
Mof_O 	O 	0.6255	0.5655	0.098	-0.601
Mof_O 	O 	0.4719	0.4416	0.0538	-0.574
Mof_O 	O 	0.8363	0.3351	0.1486	-0.502
Mof_O 	O 	0.0147	0.3731	0.2644	-0.493
Mof_O 	O 	0.83321	0.44331	0.27002	-0.516
Mof_O 	O 	0.98877	0.45807	0.20014	-0.514
Mof_O 	O 	0.66977	0.43887	0.00534	-0.588
Mof_O 	O 	0.0256	0.9622	0.7646	-0.334
Mof_O 	O 	0.5639	0.1643	0.8684	-0.416
Mof_O 	O 	0.4889	0.2701	0.958	-0.706
Mof_O 	O 	0.7282	0.2742	0.9732	-0.657
Mof_O 	O 	0.592	0.1766	0.9896	-0.399
Mof_O 	O 	0.889	0.8548	0.6424	-0.517
Mof_O 	O 	0.23013	0.98283	0.56226	-0.614
Mof_O 	O 	0.92538	0.93758	0.50516	-0.79
Mof_O 	O 	0.79012	0.84342	0.38444	-0.58
Mof_O 	O 	0.07723	0.33443	0.87026	-0.563
Mof_O 	O 	0.85507	0.79797	0.47734	-0.633
Mof_O 	O 	0.9098	0.9992	0.672	-0.528
Mof_O 	O 	0.16662	0.83652	0.50644	-0.627
Mof_O 	O 	0.0928	0.9295	0.648	-0.659
Mof_O 	O 	0.13467	0.90037	0.42594	-0.626
Mof_O 	O 	0.686	0.8828	0.4878	-0.36
Mof_O 	O 	0.36058	0.89588	0.48656	-0.364
Mof_O 	O 	0.0275	0.4675	0.902	-0.6
Mof_O 	O 	0.9181	0.3878	0.9462	-0.565
Mof_O 	O 	0.1877	0.1865	0.8514	-0.505
Mof_O 	O 	0.2503	0.1087	0.7356	-0.498
Mof_O 	O 	0.06319	0.17329	0.72998	-0.518
Mof_O 	O 	0.28863	0.25793	0.79986	-0.514
Mof_O 	O 	0.16443	0.43353	0.99466	-0.588
Mof_O 	O 	0.239	0.8024	0.7646	-0.329
Mof_O 	O 	0.8045	0.7041	0.8684	-0.415
Mof_O 	O 	0.9691	0.6879	0.958	-0.699
Mof_O 	O 	0.745	0.699	0.9732	-0.658
Mof_O 	O 	0.8976	0.813	0.9896	-0.396
Mof_O 	O 	0.2534	0.7876	0.6424	-0.517
Mof_O 	O 	0.83213	0.57943	0.56226	-0.614
Mof_O 	O 	0.07978	0.56758	0.50516	-0.789
Mof_O 	O 	0.09432	0.54102	0.38444	-0.579
Mof_O 	O 	0.29303	0.53583	0.87026	-0.562
Mof_O 	O 	0.12227	0.67937	0.47734	-0.632
Mof_O 	O 	0.2622	0.6728	0.672	-0.527
Mof_O 	O 	0.83982	0.66992	0.50644	-0.627
Mof_O 	O 	0.0552	0.7185	0.648	-0.658
Mof_O 	O 	0.79127	0.52557	0.42594	-0.627
Mof_O 	O 	0.3018	0.605	0.4878	-0.359
Mof_O 	O 	0.62598	0.59068	0.48656	-0.364
Mof_O 	O 	0.3745	0.4345	0.902	-0.601
Mof_O 	O 	0.5281	0.5584	0.9462	-0.574
Mof_O 	O 	0.1637	0.6649	0.8514	-0.502
Mof_O 	O 	0.9853	0.6269	0.7356	-0.493
Mof_O 	O 	0.16679	0.55669	0.72998	-0.516
Mof_O 	O 	0.01123	0.54193	0.79986	-0.514
Mof_O 	O 	0.33023	0.56113	0.99466	-0.588
Mof_H 	H 	0.6306	0.458	0.8984	0.143
Mof_H 	H 	0.6209	0.3257	0.8584	0.082
Mof_H 	H 	0.5368	0.3402	0.7932	0.093
Mof_H 	H 	0.6855	0.3219	0.7942	0.09
Mof_H 	H 	0.7678	0.4404	0.8984	0.144
Mof_H 	H 	0.7375	0.5327	0.8584	0.083
Mof_H 	H 	0.7564	0.453	0.7932	0.095
Mof_H 	H 	0.6087	0.4723	0.7942	0.09
Mof_C 	C 	0.627	0.3482	0.8248	-0.204
Mof_C 	C 	0.6978	0.4766	0.8248	-0.205
Mof_N 	N 	0.6842	0.4342	0.8684	-0.199
Mof_H 	H 	0.6777	0.5487	0.601	0.138
Mof_H 	H 	0.5483	0.4928	0.576	0.154
Mof_H 	H 	0.6953	0.4779	0.666	0.156
Mof_H 	H 	0.7082	0.57	0.721	0.151
Mof_H 	H 	0.5687	0.5094	0.694	0.136
Mof_H 	H 	0.5015	0.6133	0.586	0.175
Mof_H 	H 	0.4479	0.5952	0.6446	0.149
Mof_H 	H 	0.5874	0.6554	0.6708	0.141
Mof_C 	C 	0.6477	0.5225	0.6796	-0.338
Mof_C 	C 	0.5283	0.6065	0.6304	-0.346
Mof_N 	N 	0.6034	0.538	0.615	-0.163
Mof_H 	H 	0.9697	0.2177	0.2212	0.118
Mof_H 	H 	0.0392	0.2511	0.1832	0.135
Mof_H 	H 	0.1868	0.2381	0.268	0.132
Mof_H 	H 	0.1264	0.1448	0.2266	0.146
Mof_H 	H 	0.2028	0.1836	0.1874	0.132
Mof_H 	H 	0.851	0.1682	0.1056	0.155
Mof_H 	H 	0.9787	0.1362	0.0792	0.151
Mof_H 	H 	0.9051	0.0988	0.1204	0.145
Mof_C 	C 	0.1431	0.1921	0.22	-0.321
Mof_C 	C 	0.9316	0.1476	0.1176	-0.362
Mof_N 	N 	0.0193	0.2059	0.1876	-0.132
Mof_H 	H 	0.9965	0.1189	0.8466	0.136
Mof_H 	H 	0.9627	0.178	0.9126	0.125
Mof_H 	H 	0.9033	0.0491	0.9008	0.148
Mof_H 	H 	0.7714	0.0868	0.8938	0.15
Mof_H 	H 	0.8037	0.0233	0.8212	0.146
Mof_H 	H 	0.9073	0.2078	0.8206	0.141
Mof_H 	H 	0.8115	0.1221	0.7716	0.13
Mof_H 	H 	0.7764	0.1865	0.8428	0.142
Mof_C 	C 	0.8434	0.0674	0.8708	-0.352
Mof_C 	C 	0.8495	0.1654	0.8218	-0.302
Mof_N 	N 	0.9268	0.1368	0.8658	-0.156
Mof_H 	H 	0.8457	0.6516	0.2302	0.124
Mof_H 	H 	0.0743	0.6729	0.2708	0.123
Mof_H 	H 	0.0155	0.7313	0.335	0.12
Mof_H 	H 	0.059	0.653	0.336	0.131
Mof_H 	H 	0.8845	0.5786	0.2302	0.124
Mof_H 	H 	0.6965	0.5979	0.2708	0.123
Mof_H 	H 	0.8195	0.6037	0.335	0.12
Mof_H 	H 	0.777	0.683	0.336	0.131
Mof_C 	C 	0.0187	0.6757	0.3042	-0.261
Mof_C 	C 	0.7855	0.6285	0.3042	-0.267
Mof_N 	N 	0.8801	0.6301	0.2602	-0.172
Mof_H 	H 	0.4233	0.0523	0.601	0.138
Mof_H 	H 	0.5277	0.0832	0.576	0.154
Mof_H 	H 	0.4707	0.1881	0.666	0.156
Mof_H 	H 	0.5128	0.151	0.721	0.151
Mof_H 	H 	0.6253	0.1846	0.694	0.136
Mof_H 	H 	0.5845	0.9727	0.586	0.175
Mof_H 	H 	0.6967	0.0494	0.6446	0.149
Mof_H 	H 	0.5834	0.0154	0.6708	0.141
Mof_C 	C 	0.5319	0.1571	0.6796	-0.338
Mof_C 	C 	0.6021	0.0239	0.6304	-0.347
Mof_N 	N 	0.5116	0.077	0.615	-0.163
Mof_H 	H 	0.7515	0.0035	0.2212	0.123
Mof_H 	H 	0.644	0.9321	0.1832	0.134
Mof_H 	H 	0.5812	0.0299	0.268	0.129
Mof_H 	H 	0.6002	0.0818	0.2266	0.142
Mof_H 	H 	0.4846	0.0038	0.1874	0.13
Mof_H 	H 	0.7546	0.9374	0.1056	0.152
Mof_H 	H 	0.6005	0.943	0.0792	0.152
Mof_H 	H 	0.7153	0.0216	0.1204	0.144
Mof_C 	C 	0.5769	0.0279	0.22	-0.315
Mof_C 	C 	0.686	0.97	0.1176	-0.355
Mof_N 	N 	0.6683	0.9817	0.1876	-0.141
Mof_H 	H 	0.3501	0.7277	0.8466	0.133
Mof_H 	H 	0.4499	0.7346	0.9126	0.123
Mof_H 	H 	0.4975	0.8517	0.9008	0.146
Mof_H 	H 	0.6224	0.807	0.8938	0.15
Mof_H 	H 	0.5175	0.7979	0.8212	0.146
Mof_H 	H 	0.4133	0.6128	0.8206	0.139
Mof_H 	H 	0.4601	0.6495	0.7716	0.129
Mof_H 	H 	0.5664	0.6563	0.8428	0.141
Mof_C 	C 	0.5274	0.8034	0.8708	-0.352
Mof_C 	C 	0.4723	0.6564	0.8218	-0.301
Mof_N 	N 	0.439	0.729	0.8658	-0.155
Mof_H 	H 	0.3694	0.542	0.1016	0.143
Mof_H 	H 	0.3791	0.6743	0.1416	0.082
Mof_H 	H 	0.4632	0.6598	0.2068	0.093
Mof_H 	H 	0.3145	0.6781	0.2058	0.09
Mof_H 	H 	0.2322	0.5596	0.1016	0.144
Mof_H 	H 	0.2625	0.4673	0.1416	0.083
Mof_H 	H 	0.2436	0.547	0.2068	0.095
Mof_H 	H 	0.3913	0.5277	0.2058	0.09
Mof_C 	C 	0.373	0.6518	0.1752	-0.204
Mof_C 	C 	0.3022	0.5234	0.1752	-0.205
Mof_N 	N 	0.3158	0.5658	0.1316	-0.199
Mof_H 	H 	0.3223	0.4513	0.399	0.138
Mof_H 	H 	0.4517	0.5072	0.424	0.154
Mof_H 	H 	0.3047	0.5221	0.334	0.156
Mof_H 	H 	0.2918	0.43	0.279	0.151
Mof_H 	H 	0.4313	0.4906	0.306	0.136
Mof_H 	H 	0.4985	0.3867	0.414	0.175
Mof_H 	H 	0.5521	0.4048	0.3554	0.149
Mof_H 	H 	0.4126	0.3446	0.3292	0.141
Mof_C 	C 	0.3523	0.4775	0.3204	-0.338
Mof_C 	C 	0.4717	0.3935	0.3696	-0.346
Mof_N 	N 	0.3966	0.462	0.385	-0.163
Mof_H 	H 	0.0303	0.7823	0.7788	0.118
Mof_H 	H 	0.9608	0.7489	0.8168	0.135
Mof_H 	H 	0.8132	0.7619	0.732	0.132
Mof_H 	H 	0.8736	0.8552	0.7734	0.146
Mof_H 	H 	0.7972	0.8164	0.8126	0.132
Mof_H 	H 	0.149	0.8318	0.8944	0.155
Mof_H 	H 	0.0213	0.8638	0.9208	0.151
Mof_H 	H 	0.0949	0.9012	0.8796	0.145
Mof_C 	C 	0.8569	0.8079	0.78	-0.321
Mof_C 	C 	0.0684	0.8524	0.8824	-0.362
Mof_N 	N 	0.9807	0.7941	0.8124	-0.132
Mof_H 	H 	0.0035	0.8811	0.1534	0.136
Mof_H 	H 	0.0373	0.822	0.0874	0.125
Mof_H 	H 	0.0967	0.9509	0.0992	0.148
Mof_H 	H 	0.2286	0.9132	0.1062	0.15
Mof_H 	H 	0.1963	0.9767	0.1788	0.146
Mof_H 	H 	0.0927	0.7922	0.1794	0.141
Mof_H 	H 	0.1885	0.8779	0.2284	0.13
Mof_H 	H 	0.2236	0.8135	0.1572	0.142
Mof_C 	C 	0.1566	0.9326	0.1292	-0.352
Mof_C 	C 	0.1505	0.8346	0.1782	-0.302
Mof_N 	N 	0.0732	0.8632	0.1342	-0.156
Mof_H 	H 	0.1543	0.3484	0.7698	0.124
Mof_H 	H 	0.9257	0.3271	0.7292	0.123
Mof_H 	H 	0.9845	0.2687	0.665	0.12
Mof_H 	H 	0.941	0.347	0.664	0.131
Mof_H 	H 	0.1155	0.4214	0.7698	0.124
Mof_H 	H 	0.3035	0.4021	0.7292	0.123
Mof_H 	H 	0.1805	0.3963	0.665	0.12
Mof_H 	H 	0.223	0.317	0.664	0.131
Mof_C 	C 	0.9813	0.3243	0.6958	-0.261
Mof_C 	C 	0.2145	0.3715	0.6958	-0.267
Mof_N 	N 	0.1199	0.3699	0.7398	-0.172
Mof_H 	H 	0.5767	0.9477	0.399	0.138
Mof_H 	H 	0.4723	0.9168	0.424	0.154
Mof_H 	H 	0.5293	0.8119	0.334	0.156
Mof_H 	H 	0.4872	0.849	0.279	0.151
Mof_H 	H 	0.3747	0.8154	0.306	0.136
Mof_H 	H 	0.4155	0.0273	0.414	0.175
Mof_H 	H 	0.3033	0.9506	0.3554	0.149
Mof_H 	H 	0.4166	0.9846	0.3292	0.141
Mof_C 	C 	0.4681	0.8429	0.3204	-0.338
Mof_C 	C 	0.3979	0.9761	0.3696	-0.347
Mof_N 	N 	0.4884	0.923	0.385	-0.163
Mof_H 	H 	0.2485	0.9965	0.7788	0.123
Mof_H 	H 	0.356	0.0679	0.8168	0.134
Mof_H 	H 	0.4188	0.9701	0.732	0.129
Mof_H 	H 	0.3998	0.9182	0.7734	0.142
Mof_H 	H 	0.5154	0.9962	0.8126	0.13
Mof_H 	H 	0.2454	0.0626	0.8944	0.152
Mof_H 	H 	0.3995	0.057	0.9208	0.152
Mof_H 	H 	0.2847	0.9784	0.8796	0.144
Mof_C 	C 	0.4231	0.9721	0.78	-0.315
Mof_C 	C 	0.314	0.03	0.8824	-0.355
Mof_N 	N 	0.3317	0.0183	0.8124	-0.141
Mof_H 	H 	0.6499	0.2723	0.1534	0.133
Mof_H 	H 	0.5501	0.2654	0.0874	0.123
Mof_H 	H 	0.5025	0.1483	0.0992	0.146
Mof_H 	H 	0.3776	0.193	0.1062	0.15
Mof_H 	H 	0.4825	0.2021	0.1788	0.146
Mof_H 	H 	0.5867	0.3872	0.1794	0.139
Mof_H 	H 	0.5399	0.3505	0.2284	0.129
Mof_H 	H 	0.4336	0.3437	0.1572	0.141
Mof_C 	C 	0.4726	0.1966	0.1292	-0.352
Mof_C 	C 	0.5277	0.3436	0.1782	-0.301
Mof_N 	N 	0.561	0.271	0.1342	-0.155
_end
