data_functionalizedCrystal
_audit_creation_method	'EQeq! by Chris Wilmer'
_symmetry_space_group_name_H-M	'P1'
_symmetry_Int_Tables_number	1
_symmetry_cell_setting	triclinic
loop_
_symmetry_equiv_pos_as_xyz
  x,y,z
_cell_length_a	15.176
_cell_length_b	25.732
_cell_length_c	8.464
_cell_angle_alpha	90
_cell_angle_beta	132.722
_cell_angle_gamma	90
loop_
_atom_site_label
_atom_site_type_symbol
_atom_site_fract_x
_atom_site_fract_y
_atom_site_fract_z
_atom_site_charge
Mof_Cd	Cd	0.34084	0.1514	0.56041	0.281
Mof_C 	C 	0.1424	0.0618	0.216	-0.069
Mof_C 	C 	0.209	0.0912	0.3357	-0.079
Mof_C 	C 	0.4672	0.1593	0.5119	-0.07
Mof_C 	C 	0.268	0.2298	0.5112	-0.071
Mof_C 	C 	0.4662	0.1387	0.9092	-0.046
Mof_Cd	Cd	0.84084	0.6514	0.56041	0.282
Mof_C 	C 	0.6424	0.5618	0.216	-0.066
Mof_C 	C 	0.709	0.5912	0.3357	-0.077
Mof_C 	C 	0.9672	0.6593	0.5119	-0.065
Mof_C 	C 	0.768	0.7298	0.5112	-0.071
Mof_C 	C 	0.9662	0.6387	0.9092	-0.042
Mof_Cd	Cd	0.65916	0.1514	0.43959	0.287
Mof_C 	C 	0.8576	0.0618	0.784	-0.053
Mof_C 	C 	0.791	0.0912	0.6643	-0.08
Mof_C 	C 	0.5328	0.1593	0.4881	-0.069
Mof_C 	C 	0.732	0.2298	0.4888	-0.071
Mof_C 	C 	0.5338	0.1387	0.0908	-0.098
Mof_Cd	Cd	0.15916	0.6514	0.43959	0.288
Mof_C 	C 	0.3576	0.5618	0.784	-0.053
Mof_C 	C 	0.291	0.5912	0.6643	-0.079
Mof_C 	C 	0.0328	0.6593	0.4881	-0.072
Mof_C 	C 	0.232	0.7298	0.4888	-0.071
Mof_C 	C 	0.0338	0.6387	0.0908	-0.1
Mof_Cd	Cd	0.65916	0.8486	0.43959	0.289
Mof_C 	C 	0.8576	0.9382	0.784	-0.047
Mof_C 	C 	0.791	0.9088	0.6643	-0.08
Mof_C 	C 	0.5328	0.8407	0.4881	-0.068
Mof_C 	C 	0.732	0.7702	0.4888	-0.071
Mof_C 	C 	0.5338	0.8613	0.0908	-0.096
Mof_Cd	Cd	0.15916	0.3486	0.43959	0.288
Mof_C 	C 	0.3576	0.4382	0.784	-0.053
Mof_C 	C 	0.291	0.4088	0.6643	-0.079
Mof_C 	C 	0.0328	0.3407	0.4881	-0.072
Mof_C 	C 	0.232	0.2702	0.4888	-0.071
Mof_C 	C 	0.0338	0.3613	0.0908	-0.101
Mof_Cd	Cd	0.34084	0.8486	0.56041	0.284
Mof_C 	C 	0.1424	0.9382	0.216	-0.061
Mof_C 	C 	0.209	0.9088	0.3357	-0.078
Mof_C 	C 	0.4672	0.8407	0.5119	-0.068
Mof_C 	C 	0.268	0.7702	0.5112	-0.071
Mof_C 	C 	0.4662	0.8613	0.9092	-0.045
Mof_Cd	Cd	0.84084	0.3486	0.56041	0.282
Mof_C 	C 	0.6424	0.4382	0.216	-0.066
Mof_C 	C 	0.709	0.4088	0.3357	-0.077
Mof_C 	C 	0.9672	0.3407	0.5119	-0.065
Mof_C 	C 	0.768	0.2702	0.5112	-0.071
Mof_C 	C 	0.9662	0.3613	0.9092	-0.042
Mof_Cd	Cd	-0	0	-0	0.247
Mof_Cd	Cd	0.5	0.5	-0	0.256
_end
