data_functionalizedCrystal
_audit_creation_method	'EQeq! by Chris Wilmer'
_symmetry_space_group_name_H-M	'P1'
_symmetry_Int_Tables_number	1
_symmetry_cell_setting	triclinic
loop_
_symmetry_equiv_pos_as_xyz
  x,y,z
_cell_length_a	11.737
_cell_length_b	12.2554
_cell_length_c	19.301
_cell_angle_alpha	93.6338
_cell_angle_beta	90
_cell_angle_gamma	118.61
loop_
_atom_site_label
_atom_site_type_symbol
_atom_site_fract_x
_atom_site_fract_y
_atom_site_fract_z
_atom_site_charge
Mof_Na	Na	0.40116	5.84582e-18	0.25	2.413
Mof_Na	Na	0.59884	1.16916e-17	0.75	2.421
Mof_Co	Co	0.37171	0.75162	0.33778	1.166
Mof_Co	Co	0.62009	0.24838	0.16222	1.152
Mof_Co	Co	0.62829	0.24838	0.66222	1.152
Mof_Co	Co	0.37991	0.75162	0.83778	1.166
Mof_H 	H 	0.3722	0.0376	0.4794	-0.143
Mof_H 	H 	0.2603	0.7744	0.6159	0.019
Mof_H 	H 	0.1152	0.6292	0.533	0.096
Mof_H 	H 	0.9746	0.385	0.3138	0.027
Mof_H 	H 	0.79	0.5884	0.3274	0.029
Mof_H 	H 	0.9547	0.7352	0.4005	0.069
Mof_H 	H 	0.3346	0.9624	0.0206	0.131
Mof_H 	H 	0.4859	0.2256	0.8841	-0.029
Mof_H 	H 	0.486	0.3708	0.967	0.106
Mof_H 	H 	0.5896	0.615	0.1862	0.039
Mof_H 	H 	0.2016	0.4116	0.1726	0.031
Mof_H 	H 	0.2195	0.2648	0.0995	0.051
Mof_H 	H 	0.6278	0.9624	0.5206	0.129
Mof_H 	H 	0.7397	0.2256	0.3841	-0.027
Mof_H 	H 	0.8848	0.3708	0.467	0.102
Mof_H 	H 	0.0254	0.615	0.6862	0.038
Mof_H 	H 	0.21	0.4116	0.6726	0.031
Mof_H 	H 	0.0453	0.2648	0.5995	0.049
Mof_H 	H 	0.6654	0.0376	0.9794	-0.131
Mof_H 	H 	0.5141	0.7744	0.1159	0.025
Mof_H 	H 	0.514	0.6292	0.033	0.089
Mof_H 	H 	0.4104	0.385	0.8138	0.026
Mof_H 	H 	0.7984	0.5884	0.8274	0.028
Mof_H 	H 	0.7805	0.7352	0.9005	0.067
Mof_C 	C 	0.16177	0.74354	0.45465	0.082
Mof_C 	C 	0.2398	0.8676	0.4384	-0.218
Mof_C 	C 	0.32273	0.95486	0.48958	0.293
Mof_C 	C 	0.33297	0.92094	0.55554	-0.106
Mof_C 	C 	0.2549	0.798	0.57171	0.067
Mof_C 	C 	0.16871	0.71062	0.52161	-0.139
Mof_C 	C 	0.06438	0.64856	0.40289	0.047
Mof_C 	C 	0.07065	0.5429	0.37693	-0.132
Mof_C 	C 	0.97062	0.45524	0.33167	0.04
Mof_C 	C 	0.86603	0.47146	0.31322	-0.112
Mof_C 	C 	0.86008	0.57696	0.33947	0.029
Mof_C 	C 	0.9586	0.6644	0.38347	-0.108
Mof_C 	C 	0.24739	0.90478	0.36503	0.365
Mof_C 	C 	0.56901	0.98742	0.3903	0.728
Mof_C 	C 	0.18061	0.51842	0.3954	0.343
Mof_C 	C 	0.76066	0.38112	0.26277	0.308
Mof_C 	C 	0.41823	0.25646	0.04535	0.069
Mof_C 	C 	0.3722	0.1324	0.0616	-0.132
Mof_C 	C 	0.36787	0.04514	0.01042	-0.066
Mof_C 	C 	0.41203	0.07906	0.94446	-0.304
Mof_C 	C 	0.4569	0.202	0.92829	0.151
Mof_C 	C 	0.45809	0.28938	0.97839	-0.178
Mof_C 	C 	0.41582	0.35144	0.09711	0.034
Mof_C 	C 	0.52775	0.4571	0.12307	-0.13
Mof_C 	C 	0.51538	0.54476	0.16833	0.041
Mof_C 	C 	0.39457	0.52854	0.18678	-0.103
Mof_C 	C 	0.28312	0.42304	0.16053	0.015
Mof_C 	C 	0.2942	0.3356	0.11653	-0.089
Mof_C 	C 	0.34261	0.09522	0.13497	0.317
Mof_C 	C 	0.58159	0.01258	0.1097	0.23
Mof_C 	C 	0.66219	0.48158	0.1046	0.342
Mof_C 	C 	0.37954	0.61888	0.23723	0.302
Mof_C 	C 	0.83823	0.25646	0.54535	0.062
Mof_C 	C 	0.7602	0.1324	0.5616	-0.13
Mof_C 	C 	0.67727	0.04514	0.51042	-0.07
Mof_C 	C 	0.66703	0.07906	0.44446	-0.301
Mof_C 	C 	0.7451	0.202	0.42829	0.146
Mof_C 	C 	0.83129	0.28938	0.47839	-0.17
Mof_C 	C 	0.93562	0.35144	0.59711	0.03
Mof_C 	C 	0.92935	0.4571	0.62307	-0.14
Mof_C 	C 	0.02938	0.54476	0.66833	0.052
Mof_C 	C 	0.13397	0.52854	0.68678	-0.105
Mof_C 	C 	0.13992	0.42304	0.66053	0.014
Mof_C 	C 	0.0414	0.3356	0.61653	-0.081
Mof_C 	C 	0.75261	0.09522	0.63497	0.315
Mof_C 	C 	0.43099	0.01258	0.6097	0.239
Mof_C 	C 	0.81939	0.48158	0.6046	0.344
Mof_C 	C 	0.23934	0.61888	0.73723	0.303
Mof_C 	C 	0.58177	0.74354	0.95465	0.066
Mof_C 	C 	0.6278	0.8676	0.9384	-0.206
Mof_C 	C 	0.63213	0.95486	0.98958	0.263
Mof_C 	C 	0.58797	0.92094	0.05554	-0.086
Mof_C 	C 	0.5431	0.798	0.07171	0.049
Mof_C 	C 	0.54191	0.71062	0.02161	-0.119
Mof_C 	C 	0.58418	0.64856	0.90289	0.044
Mof_C 	C 	0.47225	0.5429	0.87693	-0.142
Mof_C 	C 	0.48462	0.45524	0.83167	0.053
Mof_C 	C 	0.60543	0.47146	0.81322	-0.115
Mof_C 	C 	0.71688	0.57696	0.83947	0.029
Mof_C 	C 	0.7058	0.6644	0.88347	-0.1
Mof_C 	C 	0.65739	0.90478	0.86503	0.36
Mof_C 	C 	0.41841	0.98742	0.8903	0.727
Mof_C 	C 	0.33781	0.51842	0.8954	0.346
Mof_C 	C 	0.62046	0.38112	0.76277	0.31
Mof_O 	O 	0.24136	0.99892	0.35175	-0.379
Mof_O 	O 	0.26728	0.83658	0.31816	-0.698
Mof_O 	O 	0.50881	0.87424	0.40527	-0.536
Mof_O 	O 	0.55192	0.02684	0.33578	-0.848
Mof_O 	O 	0.29642	0.60848	0.39728	-0.411
Mof_O 	O 	0.15204	0.41128	0.40909	-0.27
Mof_O 	O 	0.66024	0.39068	0.25392	-0.382
Mof_O 	O 	0.77798	0.29896	0.22869	-0.434
Mof_O 	O 	0.24244	0.00108	0.14825	-0.498
Mof_O 	O 	0.4307	0.16342	0.18184	-0.729
Mof_O 	O 	0.63457	0.12576	0.09473	-0.444
Mof_O 	O 	0.52508	0.97316	0.16422	-0.516
Mof_O 	O 	0.68794	0.39152	0.10272	-0.412
Mof_O 	O 	0.74076	0.58872	0.09091	-0.257
Mof_O 	O 	0.26956	0.60932	0.24608	-0.377
Mof_O 	O 	0.47902	0.70104	0.27131	-0.412
Mof_O 	O 	0.75864	0.00108	0.64825	-0.5
Mof_O 	O 	0.73272	0.16342	0.68184	-0.73
Mof_O 	O 	0.49119	0.12576	0.59473	-0.446
Mof_O 	O 	0.44808	0.97316	0.66422	-0.519
Mof_O 	O 	0.70358	0.39152	0.60272	-0.413
Mof_O 	O 	0.84796	0.58872	0.59091	-0.261
Mof_O 	O 	0.33976	0.60932	0.74608	-0.378
Mof_O 	O 	0.22202	0.70104	0.77131	-0.412
Mof_O 	O 	0.75756	0.99892	0.85175	-0.384
Mof_O 	O 	0.5693	0.83658	0.81816	-0.699
Mof_O 	O 	0.36543	0.87424	0.90527	-0.536
Mof_O 	O 	0.47492	0.02684	0.83578	-0.846
Mof_O 	O 	0.31206	0.60848	0.89728	-0.413
Mof_O 	O 	0.25924	0.41128	0.90909	-0.274
Mof_O 	O 	0.73044	0.39068	0.75392	-0.383
Mof_O 	O 	0.52098	0.29896	0.72869	-0.434
Mof_H 	H 	0.0735	0.3746	0.9414	0.046
Mof_H 	H 	0.717	0.2706	0.8695	-0.002
Mof_H 	H 	0.7147	0.2814	0.9961	0.042
Mof_H 	H 	0.0503	0.3608	0.8112	0.143
Mof_H 	H 	0.9129	0.2552	0.7848	0.094
Mof_H 	H 	0.9444	0.395	0.7872	0.143
Mof_H 	H 	0.0419	0.4144	0.0726	-0.037
Mof_H 	H 	0.899	0.3694	0.0955	-0.045
Mof_H 	H 	0.975	0.242	0.1363	0.257
Mof_H 	H 	0.8582	0.164	0.0833	0.262
Mof_H 	H 	0.0009	0.2088	0.0602	0.263
Mof_C 	C 	0.98547	0.35094	0.93919	0.057
Mof_C 	C 	0.78758	0.29316	0.89978	-0.006
Mof_C 	C 	0.78629	0.29898	0.96906	0.01
Mof_C 	C 	0.9592	0.3352	0.8099	-0.333
Mof_C 	C 	0.95316	0.34752	0.06624	0.279
Mof_C 	C 	0.9462	0.23	0.0885	-0.796
Mof_N 	N 	0.91272	0.32664	0.8816	-0.088
Mof_N 	N 	0.91033	0.33566	0.99284	-0.155
Mof_H 	H 	0.6989	0.6254	0.5586	0.038
Mof_H 	H 	0.4464	0.7294	0.6305	0.005
Mof_H 	H 	0.4333	0.7186	0.5039	0.045
Mof_H 	H 	0.6895	0.6392	0.6888	0.146
Mof_H 	H 	0.6577	0.7448	0.7152	0.12
Mof_H 	H 	0.5494	0.605	0.7128	0.144
Mof_H 	H 	0.6275	0.5856	0.4274	-0.072
Mof_H 	H 	0.5296	0.6306	0.4045	-0.072
Mof_H 	H 	0.733	0.758	0.3637	0.328
Mof_H 	H 	0.6942	0.836	0.4167	0.347
Mof_H 	H 	0.7921	0.7912	0.4398	0.334
Mof_C 	C 	0.63453	0.64906	0.56081	0.092
Mof_C 	C 	0.49442	0.70684	0.60022	0.009
Mof_C 	C 	0.48731	0.70102	0.53094	0.019
Mof_C 	C 	0.624	0.6648	0.6901	-0.326
Mof_C 	C 	0.60564	0.65248	0.43376	0.381
Mof_C 	C 	0.7162	0.77	0.4115	-0.959
Mof_N 	N 	0.58608	0.67336	0.6184	-0.085
Mof_N 	N 	0.57467	0.66434	0.50716	-0.166
Mof_H 	H 	0.9265	0.6254	0.0586	0.028
Mof_H 	H 	0.283	0.7294	0.1305	0.004
Mof_H 	H 	0.2853	0.7186	0.0039	0.048
Mof_H 	H 	0.9497	0.6392	0.1888	0.131
Mof_H 	H 	0.0871	0.7448	0.2152	0.112
Mof_H 	H 	0.0556	0.605	0.2128	0.136
Mof_H 	H 	0.9581	0.5856	0.9274	-0.075
Mof_H 	H 	0.101	0.6306	0.9045	-0.069
Mof_H 	H 	0.025	0.758	0.8637	0.319
Mof_H 	H 	0.1418	0.836	0.9167	0.335
Mof_H 	H 	0.9991	0.7912	0.9398	0.315
Mof_C 	C 	0.01453	0.64906	0.06081	0.111
Mof_C 	C 	0.21242	0.70684	0.10022	0.012
Mof_C 	C 	0.21371	0.70102	0.03094	0.018
Mof_C 	C 	0.0408	0.6648	0.1901	-0.293
Mof_C 	C 	0.04684	0.65248	0.93376	0.373
Mof_C 	C 	0.0538	0.77	0.9115	-0.917
Mof_N 	N 	0.08728	0.67336	0.1184	-0.091
Mof_N 	N 	0.08967	0.66434	0.00716	-0.165
Mof_H 	H 	0.3011	0.3746	0.4414	0.038
Mof_H 	H 	0.5536	0.2706	0.3695	-0.003
Mof_H 	H 	0.5667	0.2814	0.4961	0.044
Mof_H 	H 	0.3105	0.3608	0.3112	0.131
Mof_H 	H 	0.3423	0.2552	0.2848	0.087
Mof_H 	H 	0.4506	0.395	0.2872	0.137
Mof_H 	H 	0.3725	0.4144	0.5726	-0.042
Mof_H 	H 	0.4704	0.3694	0.5955	-0.044
Mof_H 	H 	0.267	0.242	0.6363	0.253
Mof_H 	H 	0.3058	0.164	0.5833	0.255
Mof_H 	H 	0.2079	0.2088	0.5602	0.251
Mof_C 	C 	0.36547	0.35094	0.43919	0.074
Mof_C 	C 	0.50558	0.29316	0.39978	-0.004
Mof_C 	C 	0.51269	0.29898	0.46906	0.01
Mof_C 	C 	0.376	0.3352	0.3099	-0.305
Mof_C 	C 	0.39436	0.34752	0.56624	0.28
Mof_C 	C 	0.2838	0.23	0.5885	-0.772
Mof_N 	N 	0.41392	0.32664	0.3816	-0.094
Mof_N 	N 	0.42533	0.33566	0.49284	-0.154
_end
