data_functionalizedCrystal
_audit_creation_method	'EQeq! by Chris Wilmer'
_symmetry_space_group_name_H-M	'P1'
_symmetry_Int_Tables_number	1
_symmetry_cell_setting	triclinic
loop_
_symmetry_equiv_pos_as_xyz
  x,y,z
_cell_length_a	26.2174
_cell_length_b	26.2174
_cell_length_c	9.5734
_cell_angle_alpha	90
_cell_angle_beta	90
_cell_angle_gamma	120
loop_
_atom_site_label
_atom_site_type_symbol
_atom_site_fract_x
_atom_site_fract_y
_atom_site_fract_z
_atom_site_charge
Mof_N 	N 	0.44566	0.99845	0.8587	-0.132
Mof_C 	C 	0.60326	0.11858	0.9938	0.091
Mof_H 	H 	0.6235	0.0979	0.9921	-0.004
Mof_C 	C 	0.63551	0.17955	0.9957	-0.144
Mof_H 	H 	0.6765	0.1993	0.9962	0.091
Mof_C 	C 	0.4081	0.9934	0.7859	-0.094
Mof_N 	N 	0.11233	0.33178	0.19203	-0.184
Mof_C 	C 	0.26993	0.45191	0.32713	0.093
Mof_H 	H 	0.29017	0.43123	0.32543	-0.023
Mof_C 	C 	0.30218	0.51288	0.32903	-0.154
Mof_H 	H 	0.34317	0.53263	0.32953	0.087
Mof_C 	C 	0.07477	0.32673	0.11923	-0.093
Mof_N 	N 	0.77899	0.66512	0.52537	-0.177
Mof_C 	C 	0.93659	0.78525	0.66047	0.076
Mof_H 	H 	0.95683	0.76457	0.65877	-0.008
Mof_C 	C 	0.96884	0.84622	0.66237	-0.105
Mof_H 	H 	0.00983	0.86597	0.66287	0.065
Mof_C 	C 	0.74143	0.66007	0.45257	-0.113
Mof_N 	N 	0.00155	0.44721	0.8587	-0.14
Mof_C 	C 	0.88142	0.48468	0.9938	0.093
Mof_H 	H 	0.9021	0.5256	0.9921	0.001
Mof_C 	C 	0.82045	0.45596	0.9957	-0.143
Mof_H 	H 	0.8007	0.4772	0.9962	0.09
Mof_C 	C 	0.0066	0.4147	0.7859	-0.102
Mof_N 	N 	0.66822	0.78054	0.19203	-0.182
Mof_C 	C 	0.54809	0.81801	0.32713	0.093
Mof_H 	H 	0.56877	0.85893	0.32543	-0.021
Mof_C 	C 	0.48712	0.78929	0.32903	-0.154
Mof_H 	H 	0.46737	0.81053	0.32953	0.088
Mof_C 	C 	0.67327	0.74803	0.11923	-0.095
Mof_N 	N 	0.33488	0.11388	0.52537	-0.178
Mof_C 	C 	0.21475	0.15135	0.66047	0.106
Mof_H 	H 	0.23543	0.19227	0.65877	-0.023
Mof_C 	C 	0.15378	0.12263	0.66237	-0.168
Mof_H 	H 	0.13403	0.14387	0.66287	0.096
Mof_C 	C 	0.33993	0.08137	0.45257	-0.115
Mof_N 	N 	0.55279	0.55434	0.8587	-0.139
Mof_C 	C 	0.51532	0.39674	0.9938	0.094
Mof_H 	H 	0.4744	0.3765	0.9921	-0.002
Mof_C 	C 	0.54404	0.36449	0.9957	-0.145
Mof_H 	H 	0.5228	0.3235	0.9962	0.091
Mof_C 	C 	0.5853	0.5919	0.7859	-0.099
Mof_N 	N 	0.21946	0.88767	0.19203	-0.185
Mof_C 	C 	0.18199	0.73007	0.32713	0.094
Mof_H 	H 	0.14107	0.70983	0.32543	-0.025
Mof_C 	C 	0.21071	0.69782	0.32903	-0.154
Mof_H 	H 	0.18947	0.65683	0.32953	0.087
Mof_C 	C 	0.25197	0.92523	0.11923	-0.077
Mof_N 	N 	0.88612	0.22101	0.52537	-0.176
Mof_C 	C 	0.84865	0.06341	0.66047	0.112
Mof_H 	H 	0.80773	0.04317	0.65877	-0.029
Mof_C 	C 	0.87737	0.03116	0.66237	-0.186
Mof_H 	H 	0.85613	0.99017	0.66287	0.113
Mof_C 	C 	0.91863	0.25857	0.45257	-0.111
Mof_N 	N 	0.99845	0.44566	0.1413	-0.167
Mof_C 	C 	0.11858	0.60326	0.0062	0.077
Mof_H 	H 	0.0979	0.6235	0.0079	-0.03
Mof_C 	C 	0.17955	0.63551	0.0043	-0.155
Mof_H 	H 	0.1993	0.6765	0.0038	0.075
Mof_C 	C 	0.9934	0.4081	0.2141	-0.115
Mof_N 	N 	0.66512	0.77899	0.47463	-0.171
Mof_C 	C 	0.78525	0.93659	0.33953	0.065
Mof_H 	H 	0.76457	0.95683	0.34123	-0.01
Mof_C 	C 	0.84622	0.96884	0.33763	-0.105
Mof_H 	H 	0.86597	0.00983	0.33713	0.052
Mof_C 	C 	0.66007	0.74143	0.54743	-0.105
Mof_N 	N 	0.33178	0.11233	0.80797	-0.188
Mof_C 	C 	0.45191	0.26993	0.67287	0.09
Mof_H 	H 	0.43123	0.29017	0.67457	-0.023
Mof_C 	C 	0.51288	0.30218	0.67097	-0.157
Mof_H 	H 	0.53263	0.34317	0.67047	0.082
Mof_C 	C 	0.32673	0.07477	0.88077	-0.029
Mof_N 	N 	0.44721	0.00155	0.1413	-0.177
Mof_C 	C 	0.48468	0.88142	0.0062	0.078
Mof_H 	H 	0.5256	0.9021	0.0079	-0.026
Mof_C 	C 	0.45596	0.82045	0.0043	-0.154
Mof_H 	H 	0.4772	0.8007	0.0038	0.075
Mof_C 	C 	0.4147	0.0066	0.2141	-0.123
Mof_N 	N 	0.11388	0.33488	0.47463	-0.171
Mof_C 	C 	0.15135	0.21475	0.33953	0.096
Mof_H 	H 	0.19227	0.23543	0.34123	-0.026
Mof_C 	C 	0.12263	0.15378	0.33763	-0.171
Mof_H 	H 	0.14387	0.13403	0.33713	0.084
Mof_C 	C 	0.08137	0.33993	0.54743	-0.107
Mof_N 	N 	0.78054	0.66822	0.80797	-0.186
Mof_C 	C 	0.81801	0.54809	0.67287	0.09
Mof_H 	H 	0.85893	0.56877	0.67457	-0.022
Mof_C 	C 	0.78929	0.48712	0.67097	-0.157
Mof_H 	H 	0.81053	0.46737	0.67047	0.082
Mof_C 	C 	0.74803	0.67327	0.88077	-0.032
Mof_N 	N 	0.55434	0.55279	0.1413	-0.176
Mof_C 	C 	0.39674	0.51532	0.0062	0.078
Mof_H 	H 	0.3765	0.4744	0.0079	-0.03
Mof_C 	C 	0.36449	0.54404	0.0043	-0.156
Mof_H 	H 	0.3235	0.5228	0.0038	0.076
Mof_C 	C 	0.5919	0.5853	0.2141	-0.119
Mof_N 	N 	0.22101	0.88612	0.47463	-0.17
Mof_C 	C 	0.06341	0.84865	0.33953	0.101
Mof_H 	H 	0.04317	0.80773	0.34123	-0.032
Mof_C 	C 	0.03116	0.87737	0.33763	-0.187
Mof_H 	H 	0.99017	0.85613	0.33713	0.101
Mof_C 	C 	0.25857	0.91863	0.54743	-0.103
Mof_N 	N 	0.88767	0.21946	0.80797	-0.189
Mof_C 	C 	0.73007	0.18199	0.67287	0.091
Mof_H 	H 	0.70983	0.14107	0.67457	-0.025
Mof_C 	C 	0.69782	0.21071	0.67097	-0.157
Mof_H 	H 	0.65683	0.18947	0.67047	0.081
Mof_C 	C 	0.92523	0.25197	0.88077	-0.016
Mof_N 	N 	0.55434	0.00155	0.1413	-0.177
Mof_C 	C 	0.39674	0.88142	0.0062	0.078
Mof_H 	H 	0.3765	0.9021	0.0079	-0.026
Mof_C 	C 	0.36449	0.82045	0.0043	-0.154
Mof_H 	H 	0.3235	0.8007	0.0038	0.075
Mof_C 	C 	0.5919	0.0066	0.2141	-0.123
Mof_N 	N 	0.22101	0.33488	0.47463	-0.171
Mof_C 	C 	0.06341	0.21475	0.33953	0.11
Mof_H 	H 	0.04317	0.23543	0.34123	-0.035
Mof_C 	C 	0.03116	0.15378	0.33763	-0.204
Mof_H 	H 	0.99017	0.13403	0.33713	0.106
Mof_C 	C 	0.25857	0.33993	0.54743	-0.105
Mof_N 	N 	0.88767	0.66822	0.80797	-0.188
Mof_C 	C 	0.73007	0.54809	0.67287	0.09
Mof_H 	H 	0.70983	0.56877	0.67457	-0.024
Mof_C 	C 	0.69782	0.48712	0.67097	-0.157
Mof_H 	H 	0.65683	0.46737	0.67047	0.082
Mof_C 	C 	0.92523	0.67327	0.88077	-0.017
Mof_N 	N 	0.99845	0.55279	0.1413	-0.167
Mof_C 	C 	0.11858	0.51532	0.0062	0.077
Mof_H 	H 	0.0979	0.4744	0.0079	-0.03
Mof_C 	C 	0.17955	0.54404	0.0043	-0.155
Mof_H 	H 	0.1993	0.5228	0.0038	0.075
Mof_C 	C 	0.9934	0.5853	0.2141	-0.115
Mof_N 	N 	0.66512	0.88612	0.47463	-0.17
Mof_C 	C 	0.78525	0.84865	0.33953	0.079
Mof_H 	H 	0.76457	0.80773	0.34123	-0.02
Mof_C 	C 	0.84622	0.87737	0.33763	-0.14
Mof_H 	H 	0.86597	0.85613	0.33713	0.075
Mof_C 	C 	0.66007	0.91863	0.54743	-0.103
Mof_N 	N 	0.33178	0.21946	0.80797	-0.186
Mof_C 	C 	0.45191	0.18199	0.67287	0.091
Mof_H 	H 	0.43123	0.14107	0.67457	-0.025
Mof_C 	C 	0.51288	0.21071	0.67097	-0.157
Mof_H 	H 	0.53263	0.18947	0.67047	0.081
Mof_C 	C 	0.32673	0.25197	0.88077	-0.032
Mof_N 	N 	0.44721	0.44566	0.1413	-0.176
Mof_C 	C 	0.48468	0.60326	0.0062	0.078
Mof_H 	H 	0.5256	0.6235	0.0079	-0.03
Mof_C 	C 	0.45596	0.63551	0.0043	-0.156
Mof_H 	H 	0.4772	0.6765	0.0038	0.076
Mof_C 	C 	0.4147	0.4081	0.2141	-0.119
Mof_N 	N 	0.11388	0.77899	0.47463	-0.171
Mof_C 	C 	0.15135	0.93659	0.33953	0.072
Mof_H 	H 	0.19227	0.95683	0.34123	-0.013
Mof_C 	C 	0.12263	0.96884	0.33763	-0.119
Mof_H 	H 	0.14387	0.00983	0.33713	0.056
Mof_C 	C 	0.08137	0.74143	0.54743	-0.107
Mof_N 	N 	0.78054	0.11233	0.80797	-0.188
Mof_C 	C 	0.81801	0.26993	0.67287	0.09
Mof_H 	H 	0.85893	0.29017	0.67457	-0.022
Mof_C 	C 	0.78929	0.30218	0.67097	-0.157
Mof_H 	H 	0.81053	0.34317	0.67047	0.082
Mof_C 	C 	0.74803	0.07477	0.88077	-0.029
Mof_N 	N 	0.00155	0.55434	0.8587	-0.141
Mof_C 	C 	0.88142	0.39674	0.9938	0.093
Mof_H 	H 	0.9021	0.3765	0.9921	0.001
Mof_C 	C 	0.82045	0.36449	0.9957	-0.143
Mof_H 	H 	0.8007	0.3235	0.9962	0.091
Mof_C 	C 	0.0066	0.5919	0.7859	-0.102
Mof_N 	N 	0.66822	0.88767	0.19203	-0.185
Mof_C 	C 	0.54809	0.73007	0.32713	0.093
Mof_H 	H 	0.56877	0.70983	0.32543	-0.023
Mof_C 	C 	0.48712	0.69782	0.32903	-0.154
Mof_H 	H 	0.46737	0.65683	0.32953	0.087
Mof_C 	C 	0.67327	0.92523	0.11923	-0.077
Mof_N 	N 	0.33488	0.22101	0.52537	-0.177
Mof_C 	C 	0.21475	0.06341	0.66047	0.12
Mof_H 	H 	0.23543	0.04317	0.65877	-0.032
Mof_C 	C 	0.15378	0.03116	0.66237	-0.202
Mof_H 	H 	0.13403	0.99017	0.66287	0.118
Mof_C 	C 	0.33993	0.25857	0.45257	-0.113
Mof_N 	N 	0.55279	0.99845	0.8587	-0.131
Mof_C 	C 	0.51532	0.11858	0.9938	0.092
Mof_H 	H 	0.4744	0.0979	0.9921	-0.002
Mof_C 	C 	0.54404	0.17955	0.9957	-0.144
Mof_H 	H 	0.5228	0.1993	0.9962	0.091
Mof_C 	C 	0.5853	0.9934	0.7859	-0.094
Mof_N 	N 	0.21946	0.33178	0.19203	-0.182
Mof_C 	C 	0.18199	0.45191	0.32713	0.094
Mof_H 	H 	0.14107	0.43123	0.32543	-0.025
Mof_C 	C 	0.21071	0.51288	0.32903	-0.154
Mof_H 	H 	0.18947	0.53263	0.32953	0.087
Mof_C 	C 	0.25197	0.32673	0.11923	-0.095
Mof_N 	N 	0.88612	0.66512	0.52537	-0.176
Mof_C 	C 	0.84865	0.78525	0.66047	0.089
Mof_H 	H 	0.80773	0.76457	0.65877	-0.017
Mof_C 	C 	0.87737	0.84622	0.66237	-0.138
Mof_H 	H 	0.85613	0.86597	0.66287	0.087
Mof_C 	C 	0.91863	0.66007	0.45257	-0.111
Mof_N 	N 	0.44566	0.44721	0.8587	-0.139
Mof_C 	C 	0.60326	0.48468	0.9938	0.094
Mof_H 	H 	0.6235	0.5256	0.9921	-0.002
Mof_C 	C 	0.63551	0.45596	0.9957	-0.145
Mof_H 	H 	0.6765	0.4772	0.9962	0.091
Mof_C 	C 	0.4081	0.4147	0.7859	-0.098
Mof_N 	N 	0.11233	0.78054	0.19203	-0.184
Mof_C 	C 	0.26993	0.81801	0.32713	0.093
Mof_H 	H 	0.29017	0.85893	0.32543	-0.021
Mof_C 	C 	0.30218	0.78929	0.32903	-0.154
Mof_H 	H 	0.34317	0.81053	0.32953	0.088
Mof_C 	C 	0.07477	0.74803	0.11923	-0.093
Mof_N 	N 	0.77899	0.11388	0.52537	-0.178
Mof_C 	C 	0.93659	0.15135	0.66047	0.084
Mof_H 	H 	0.95683	0.19227	0.65877	-0.01
Mof_C 	C 	0.96884	0.12263	0.66237	-0.12
Mof_H 	H 	0.00983	0.14387	0.66287	0.07
Mof_C 	C 	0.74143	0.08137	0.45257	-0.114
Mof_Ag	Ag	0.33333	0.96595	0.66667	0.467
Mof_Ag	Ag	1.99496e-17	0.29928	-0	0.23
Mof_Ag	Ag	0.03405	0.36739	0.66667	0.433
Mof_Ag	Ag	0.70072	0.70072	-0	0.26
Mof_Ag	Ag	0.63261	0.66667	0.66667	0.446
Mof_Ag	Ag	0.29928	0	-0	0.227
Mof_Ag	Ag	0.96595	0.33333	0.33333	0.4
Mof_Ag	Ag	0.36739	0.03405	0.33333	0.366
Mof_Ag	Ag	0.66667	0.63261	0.33333	0.38
Mof_Ag	Ag	0.66667	0.03405	0.33333	0.366
Mof_Ag	Ag	0.96595	0.63261	0.33333	0.4
Mof_Ag	Ag	0.36739	0.33333	0.33333	0.38
Mof_Ag	Ag	0.03405	0.66667	0.66667	0.433
Mof_Ag	Ag	0.70072	0	-0	0.228
Mof_Ag	Ag	0.63261	0.96595	0.66667	0.466
Mof_Ag	Ag	0.29928	0.29928	-0	0.257
Mof_Ag	Ag	0.33333	0.36739	0.66667	0.446
Mof_Ag	Ag	3.98992e-17	0.70072	-0	0.232
Mof_Fe	Fe	0.5	0	-0	0.598
Mof_Fe	Fe	0.16667	0.33333	0.33333	0.729
Mof_Fe	Fe	0.83333	0.66667	0.66667	0.738
Mof_Fe	Fe	3.98992e-17	0.5	-0	0.6
Mof_Fe	Fe	0.66667	0.83333	0.33333	0.73
Mof_Fe	Fe	0.33333	0.16667	0.66667	0.737
Mof_Fe	Fe	0.5	0.5	-0	0.621
Mof_Fe	Fe	0.16667	0.83333	0.33333	0.73
Mof_Fe	Fe	0.83333	0.16667	0.66667	0.738
Mof_N 	N 	0.54385	0.0877	0.9944	-0.181
Mof_C 	C 	0.60525	0.2105	0.9966	0.073
Mof_C 	C 	0.63805	0.2761	0.9996	0.103
Mof_N 	N 	0.21052	0.42103	0.32773	-0.212
Mof_C 	C 	0.27192	0.54383	0.32993	0.074
Mof_C 	C 	0.30472	0.60943	0.33293	0.099
Mof_N 	N 	0.87718	0.75437	0.66107	-0.206
Mof_C 	C 	0.93858	0.87717	0.66327	0.056
Mof_C 	C 	0.97138	0.94277	0.66627	0.124
Mof_N 	N 	0.9123	0.45615	0.9944	-0.176
Mof_C 	C 	0.7895	0.39475	0.9966	0.073
Mof_C 	C 	0.7239	0.36195	0.9996	0.104
Mof_N 	N 	0.57897	0.78948	0.32773	-0.212
Mof_C 	C 	0.45617	0.72808	0.32993	0.074
Mof_C 	C 	0.39057	0.69528	0.33293	0.099
Mof_N 	N 	0.24563	0.12282	0.66107	-0.217
Mof_C 	C 	0.12283	0.06142	0.66327	0.099
Mof_C 	C 	0.05723	0.02862	0.66627	0.078
Mof_N 	N 	0.54385	0.45615	0.9944	-0.182
Mof_C 	C 	0.60525	0.39475	0.9966	0.074
Mof_C 	C 	0.63805	0.36195	0.9996	0.103
Mof_N 	N 	0.21052	0.78948	0.32773	-0.212
Mof_C 	C 	0.27192	0.72808	0.32993	0.074
Mof_C 	C 	0.30472	0.69528	0.33293	0.099
Mof_N 	N 	0.87718	0.12282	0.66107	-0.211
Mof_C 	C 	0.93858	0.06142	0.66327	0.077
Mof_C 	C 	0.97138	0.02862	0.66627	0.101
Mof_N 	N 	0.0877	0.54385	0.0056	-0.209
Mof_C 	C 	0.2105	0.60525	0.0034	0.061
Mof_C 	C 	0.2761	0.63805	0.0004	0.088
Mof_N 	N 	0.75437	0.87718	0.33893	-0.205
Mof_C 	C 	0.87717	0.93858	0.33673	0.043
Mof_C 	C 	0.94277	0.97138	0.33373	0.113
Mof_N 	N 	0.42103	0.21052	0.67227	-0.212
Mof_C 	C 	0.54383	0.27192	0.67007	0.068
Mof_C 	C 	0.60943	0.30472	0.66707	0.089
Mof_N 	N 	0.45615	0.9123	0.0056	-0.203
Mof_C 	C 	0.39475	0.7895	0.0034	0.061
Mof_C 	C 	0.36195	0.7239	0.0004	0.088
Mof_N 	N 	0.12282	0.24563	0.33893	-0.217
Mof_C 	C 	0.06142	0.12283	0.33673	0.087
Mof_C 	C 	0.02862	0.05723	0.33373	0.066
Mof_N 	N 	0.78948	0.57897	0.67227	-0.212
Mof_C 	C 	0.72808	0.45617	0.67007	0.068
Mof_C 	C 	0.69528	0.39057	0.66707	0.089
Mof_N 	N 	0.45615	0.54385	0.0056	-0.21
Mof_C 	C 	0.39475	0.60525	0.0034	0.062
Mof_C 	C 	0.36195	0.63805	0.0004	0.088
Mof_N 	N 	0.12282	0.87718	0.33893	-0.21
Mof_C 	C 	0.06142	0.93858	0.33673	0.064
Mof_C 	C 	0.02862	0.97138	0.33373	0.091
Mof_N 	N 	0.78948	0.21052	0.67227	-0.212
Mof_C 	C 	0.72808	0.27192	0.67007	0.068
Mof_C 	C 	0.69528	0.30472	0.66707	0.089
Mof_N 	N 	0.6059	0.30295	0.999	-0.135
Mof_N 	N 	0.27257	0.63628	0.33233	-0.136
Mof_N 	N 	0.93923	0.96962	0.66567	-0.13
Mof_N 	N 	0.69705	0.30295	0.999	-0.135
Mof_N 	N 	0.36372	0.63628	0.33233	-0.136
Mof_N 	N 	0.03038	0.96962	0.66567	-0.135
Mof_N 	N 	0.69705	0.3941	0.999	-0.135
Mof_N 	N 	0.36372	0.72743	0.33233	-0.136
Mof_N 	N 	0.03038	0.06077	0.66567	-0.139
Mof_N 	N 	0.30295	0.6059	0.001	-0.142
Mof_N 	N 	0.96962	0.93923	0.33433	-0.136
Mof_N 	N 	0.63628	0.27257	0.66767	-0.14
Mof_N 	N 	0.30295	0.69705	0.001	-0.142
Mof_N 	N 	0.96962	0.03038	0.33433	-0.141
Mof_N 	N 	0.63628	0.36372	0.66767	-0.14
Mof_N 	N 	0.3941	0.69705	0.001	-0.142
Mof_N 	N 	0.06077	0.03038	0.33433	-0.146
Mof_N 	N 	0.72743	0.36372	0.66767	-0.14
_end
