data_functionalizedCrystal
_audit_creation_method	'EQeq! by Chris Wilmer'
_symmetry_space_group_name_H-M	'P1'
_symmetry_Int_Tables_number	1
_symmetry_cell_setting	triclinic
loop_
_symmetry_equiv_pos_as_xyz
  x,y,z
_cell_length_a	13.415
_cell_length_b	13.415
_cell_length_c	19.3449
_cell_angle_alpha	110.288
_cell_angle_beta	110.288
_cell_angle_gamma	90
loop_
_atom_site_label
_atom_site_type_symbol
_atom_site_fract_x
_atom_site_fract_y
_atom_site_fract_z
_atom_site_charge
Mof_Cd	Cd	0.26808	0.44461	0.48964	0.441
Mof_Cd	Cd	0.22156	0.04503	0.48964	0.428
Mof_Cd	Cd	0.55539	0.77844	0.51036	0.44
Mof_Cd	Cd	0.95497	0.73192	0.51036	0.428
Mof_Cd	Cd	0.02844	0.30539	0.01036	0.453
Mof_Cd	Cd	0.98192	0.70497	0.01036	0.428
Mof_Cd	Cd	0.29503	0.97156	0.98964	0.455
Mof_Cd	Cd	0.69461	0.01808	0.98964	0.427
Mof_H 	H 	0.098	0.7077	0.3988	0.125
Mof_H 	H 	0.0427	0.5993	0.3238	0.125
Mof_H 	H 	0.8227	0.5771	0.2742	0.11
Mof_H 	H 	0.8929	0.5162	0.3284	0.104
Mof_H 	H 	0.854	0.7881	0.3446	0.112
Mof_H 	H 	0.9804	0.8249	0.3884	0.105
Mof_H 	H 	0.799	0.6822	0.0812	0.011
Mof_H 	H 	0.7781	0.7049	0.1984	0.113
Mof_H 	H 	0.0941	0.7815	0.31	0.11
Mof_H 	H 	0.1097	0.7426	0.187	-0.004
Mof_H 	H 	0.3008	0.6911	0.3988	0.126
Mof_H 	H 	0.2811	0.7245	0.3238	0.126
Mof_H 	H 	0.4515	0.6971	0.2742	0.112
Mof_H 	H 	0.4355	0.8122	0.3284	0.11
Mof_H 	H 	0.4906	0.5565	0.3446	0.114
Mof_H 	H 	0.408	0.5635	0.3884	0.111
Mof_H 	H 	0.2822	0.399	0.0812	0.008
Mof_H 	H 	0.4203	0.4935	0.1984	0.117
Mof_H 	H 	0.2159	0.5285	0.31	0.115
Mof_H 	H 	0.0773	0.4444	0.187	-0.001
Mof_H 	H 	0.2923	0.6992	0.6012	0.126
Mof_H 	H 	0.4007	0.7189	0.6762	0.126
Mof_H 	H 	0.4229	0.5485	0.7258	0.112
Mof_H 	H 	0.4838	0.5645	0.6716	0.109
Mof_H 	H 	0.2119	0.5094	0.6554	0.116
Mof_H 	H 	0.1751	0.592	0.6116	0.114
Mof_H 	H 	0.3178	0.7178	0.9188	0.008
Mof_H 	H 	0.2951	0.5797	0.8016	0.118
Mof_H 	H 	0.2185	0.7841	0.69	0.117
Mof_H 	H 	0.2574	0.9227	0.813	-0
Mof_H 	H 	0.3089	0.902	0.6012	0.124
Mof_H 	H 	0.2755	0.9573	0.6762	0.125
Mof_H 	H 	0.3029	0.1773	0.7258	0.11
Mof_H 	H 	0.1878	0.1071	0.6716	0.105
Mof_H 	H 	0.4435	0.146	0.6554	0.11
Mof_H 	H 	0.4365	0.0196	0.6116	0.103
Mof_H 	H 	0.601	0.201	0.9188	0.01
Mof_H 	H 	0.5065	0.2219	0.8016	0.112
Mof_H 	H 	0.4715	0.9059	0.69	0.108
Mof_H 	H 	0.5556	0.8903	0.813	-0.004
Mof_H 	H 	0.9492	0.0423	0.1012	0.116
Mof_H 	H 	0.9689	0.1507	0.1762	0.118
Mof_H 	H 	0.7985	0.1729	0.2258	0.109
Mof_H 	H 	0.8145	0.2338	0.1716	0.106
Mof_H 	H 	0.7594	0.9619	0.1554	0.099
Mof_H 	H 	0.842	0.9251	0.1116	0.093
Mof_H 	H 	0.9678	0.0678	0.4188	0.019
Mof_H 	H 	0.8297	0.0451	0.3016	0.091
Mof_H 	H 	0.0341	0.9685	0.19	0.086
Mof_H 	H 	0.1727	0.0074	0.313	0.013
Mof_H 	H 	0.152	0.0589	0.1012	0.132
Mof_H 	H 	0.2073	0.0255	0.1762	0.128
Mof_H 	H 	0.4273	0.0529	0.2258	0.121
Mof_H 	H 	0.3571	0.9378	0.1716	0.13
Mof_H 	H 	0.396	0.1935	0.1554	0.113
Mof_H 	H 	0.2696	0.1865	0.1116	0.112
Mof_H 	H 	0.451	0.351	0.4188	0.007
Mof_H 	H 	0.4719	0.2565	0.3016	0.116
Mof_H 	H 	0.1559	0.2215	0.19	0.118
Mof_H 	H 	0.1403	0.3056	0.313	-0.002
Mof_H 	H 	0.9411	0.0508	0.8988	0.125
Mof_H 	H 	0.9745	0.0311	0.8238	0.122
Mof_H 	H 	0.9471	0.2015	0.7742	0.119
Mof_H 	H 	0.0622	0.1855	0.8284	0.126
Mof_H 	H 	0.8065	0.2406	0.8446	0.109
Mof_H 	H 	0.8135	0.158	0.8884	0.105
Mof_H 	H 	0.649	0.0322	0.5812	0.013
Mof_H 	H 	0.7435	0.1703	0.6984	0.107
Mof_H 	H 	0.7785	0.9659	0.81	0.106
Mof_H 	H 	0.6944	0.8273	0.687	0.001
Mof_H 	H 	0.9577	0.848	0.8988	0.123
Mof_H 	H 	0.8493	0.7927	0.8238	0.124
Mof_H 	H 	0.8271	0.5727	0.7742	0.11
Mof_H 	H 	0.7662	0.6429	0.8284	0.108
Mof_H 	H 	0.0381	0.604	0.8446	0.103
Mof_H 	H 	0.0749	0.7304	0.8884	0.099
Mof_H 	H 	0.9322	0.549	0.5812	0.013
Mof_H 	H 	0.9549	0.5281	0.6984	0.099
Mof_H 	H 	0.0315	0.8441	0.81	0.096
Mof_H 	H 	0.9926	0.8597	0.687	0.01
Mof_C 	C 	0.0462	0.6421	0.378	-0.285
Mof_C 	C 	0.08543	0.57803	0.42986	0.409
Mof_C 	C 	0.8571	0.5809	0.3294	-0.224
Mof_C 	C 	0.76733	0.58233	0.36646	0.343
Mof_C 	C 	0.92485	0.76455	0.3477	-0.205
Mof_C 	C 	0.86139	0.69899	0.12798	0.118
Mof_C 	C 	0.84835	0.71405	0.1983	-0.204
Mof_C 	C 	0.9352	0.7421	0.268	0.165
Mof_C 	C 	0.03155	0.75675	0.2631	-0.192
Mof_C 	C 	0.04034	0.73564	0.18888	0.129
Mof_C 	C 	0.3318	0.7359	0.378	-0.298
Mof_C 	C 	0.34443	0.85183	0.42986	0.409
Mof_C 	C 	0.4723	0.7485	0.3294	-0.227
Mof_C 	C 	0.59913	0.78413	0.36646	0.344
Mof_C 	C 	0.42285	0.58315	0.3477	-0.215
Mof_C 	C 	0.26659	0.42899	0.12798	0.126
Mof_C 	C 	0.34995	0.48425	0.1983	-0.216
Mof_C 	C 	0.3328	0.5259	0.268	0.19
Mof_C 	C 	0.23155	0.50635	0.2631	-0.218
Mof_C 	C 	0.14854	0.45324	0.18888	0.122
Mof_C 	C 	0.3579	0.6682	0.622	-0.3
Mof_C 	C 	0.42197	0.65557	0.57014	0.412
Mof_C 	C 	0.4191	0.5277	0.6706	-0.227
Mof_C 	C 	0.41767	0.40087	0.63354	0.344
Mof_C 	C 	0.23545	0.57715	0.6523	-0.218
Mof_C 	C 	0.30101	0.73341	0.87202	0.128
Mof_C 	C 	0.28595	0.65005	0.8017	-0.216
Mof_C 	C 	0.2579	0.6672	0.732	0.193
Mof_C 	C 	0.24325	0.76845	0.7369	-0.218
Mof_C 	C 	0.26436	0.85146	0.81112	0.123
Mof_C 	C 	0.2641	0.9538	0.622	-0.283
Mof_C 	C 	0.14817	0.91457	0.57014	0.407
Mof_C 	C 	0.2515	0.1429	0.6706	-0.224
Mof_C 	C 	0.21587	0.23267	0.63354	0.343
Mof_C 	C 	0.41685	0.07515	0.6523	-0.203
Mof_C 	C 	0.57101	0.13861	0.87202	0.117
Mof_C 	C 	0.51575	0.15165	0.8017	-0.204
Mof_C 	C 	0.4741	0.0648	0.732	0.162
Mof_C 	C 	0.49365	0.96845	0.7369	-0.192
Mof_C 	C 	0.54676	0.95966	0.81112	0.127
Mof_C 	C 	0.9182	0.1079	0.122	-0.294
Mof_C 	C 	0.90557	0.17197	0.07014	0.41
Mof_C 	C 	0.7777	0.1691	0.1706	-0.222
Mof_C 	C 	0.65087	0.16767	0.13354	0.341
Mof_C 	C 	0.82715	0.98545	0.1523	-0.144
Mof_C 	C 	0.98341	0.05101	0.37202	0.072
Mof_C 	C 	0.90005	0.03595	0.3017	-0.152
Mof_C 	C 	0.9172	0.0079	0.232	0.086
Mof_C 	C 	0.01845	0.99325	0.2369	-0.1
Mof_C 	C 	0.10146	0.01436	0.31112	0.056
Mof_C 	C 	0.2038	0.0141	0.122	-0.322
Mof_C 	C 	0.16457	0.89817	0.07014	0.428
Mof_C 	C 	0.3929	0.0015	0.1706	-0.272
Mof_C 	C 	0.48267	0.96587	0.13354	0.365
Mof_C 	C 	0.32515	0.16685	0.1523	-0.218
Mof_C 	C 	0.38861	0.32101	0.37202	0.126
Mof_C 	C 	0.40165	0.26575	0.3017	-0.218
Mof_C 	C 	0.3148	0.2241	0.232	0.191
Mof_C 	C 	0.21845	0.24365	0.2369	-0.22
Mof_C 	C 	0.20966	0.29676	0.31112	0.122
Mof_C 	C 	0.9859	0.0818	0.878	-0.316
Mof_C 	C 	0.10183	0.09443	0.92986	0.426
Mof_C 	C 	0.9985	0.2223	0.8294	-0.267
Mof_C 	C 	0.03413	0.34913	0.86646	0.363
Mof_C 	C 	0.83315	0.17285	0.8477	-0.201
Mof_C 	C 	0.67899	0.01659	0.62798	0.096
Mof_C 	C 	0.73425	0.09995	0.6983	-0.193
Mof_C 	C 	0.7759	0.0828	0.768	0.156
Mof_C 	C 	0.75635	0.98155	0.7631	-0.181
Mof_C 	C 	0.70324	0.89854	0.68888	0.107
Mof_C 	C 	0.8921	0.7962	0.878	-0.296
Mof_C 	C 	0.82803	0.83543	0.92986	0.409
Mof_C 	C 	0.8309	0.6071	0.8294	-0.224
Mof_C 	C 	0.83233	0.51733	0.86646	0.341
Mof_C 	C 	0.01455	0.67485	0.8477	-0.156
Mof_C 	C 	0.94899	0.61139	0.62798	0.099
Mof_C 	C 	0.96405	0.59835	0.6983	-0.175
Mof_C 	C 	0.9921	0.6852	0.768	0.118
Mof_C 	C 	0.00675	0.78155	0.7631	-0.137
Mof_C 	C 	0.98564	0.79034	0.68888	0.071
Mof_N 	N 	0.93543	0.67393	0.37406	-0.043
Mof_N 	N 	0.95646	0.70676	0.12212	-0.172
Mof_N 	N 	0.43863	0.70013	0.37406	-0.035
Mof_N 	N 	0.16566	0.41536	0.12212	-0.165
Mof_N 	N 	0.32607	0.56137	0.62594	-0.035
Mof_N 	N 	0.29324	0.83434	0.87788	-0.165
Mof_N 	N 	0.29987	0.06457	0.62594	-0.044
Mof_N 	N 	0.58464	0.04354	0.87788	-0.172
Mof_N 	N 	0.81137	0.07607	0.12594	-0.049
Mof_N 	N 	0.08434	0.04324	0.37788	-0.141
Mof_N 	N 	0.31457	0.04987	0.12594	-0.031
Mof_N 	N 	0.29354	0.33464	0.37788	-0.166
Mof_N 	N 	0.95013	0.18863	0.87406	-0.034
Mof_N 	N 	0.66536	0.91566	0.62212	-0.152
Mof_N 	N 	0.92393	0.68543	0.87406	-0.047
Mof_N 	N 	0.95676	0.70646	0.62212	-0.154
Mof_O 	O 	0.15571	0.52341	0.41522	-0.33
Mof_O 	O 	0.06161	0.59571	0.48702	-0.318
Mof_O 	O 	0.79503	0.62383	0.43886	-0.285
Mof_O 	O 	0.67716	0.52546	0.32132	-0.244
Mof_O 	O 	0.25951	0.89181	0.41522	-0.324
Mof_O 	O 	0.42541	0.89131	0.48702	-0.32
Mof_O 	O 	0.64383	0.81503	0.43886	-0.282
Mof_O 	O 	0.64416	0.79586	0.32132	-0.242
Mof_O 	O 	0.47659	0.74049	0.58478	-0.331
Mof_O 	O 	0.40429	0.57459	0.51298	-0.327
Mof_O 	O 	0.37617	0.35617	0.56114	-0.285
Mof_O 	O 	0.47454	0.35584	0.67868	-0.244
Mof_O 	O 	0.10819	0.84429	0.58478	-0.322
Mof_O 	O 	0.10869	0.93839	0.51298	-0.311
Mof_O 	O 	0.18497	0.20497	0.56114	-0.282
Mof_O 	O 	0.20414	0.32284	0.67868	-0.242
Mof_O 	O 	0.99049	0.22659	0.08478	-0.342
Mof_O 	O 	0.82459	0.15429	0.01298	-0.328
Mof_O 	O 	0.60617	0.12617	0.06114	-0.287
Mof_O 	O 	0.60584	0.22454	0.17868	-0.246
Mof_O 	O 	0.09429	0.85819	0.08478	-0.324
Mof_O 	O 	0.18839	0.85869	0.01298	-0.326
Mof_O 	O 	0.45497	0.93497	0.06114	-0.287
Mof_O 	O 	0.57284	0.95414	0.17868	-0.243
Mof_O 	O 	0.14181	0.00951	0.91522	-0.343
Mof_O 	O 	0.14131	0.17541	0.98702	-0.331
Mof_O 	O 	0.06503	0.39383	0.93886	-0.286
Mof_O 	O 	0.04586	0.39416	0.82132	-0.243
Mof_O 	O 	0.77341	0.90571	0.91522	-0.324
Mof_O 	O 	0.84571	0.81161	0.98702	-0.323
Mof_O 	O 	0.87383	0.54503	0.93886	-0.286
Mof_O 	O 	0.77546	0.42716	0.82132	-0.245
_end
