data_functionalizedCrystal
_audit_creation_method	'EQeq! by Chris Wilmer'
_symmetry_space_group_name_H-M	'P1'
_symmetry_Int_Tables_number	1
_symmetry_cell_setting	triclinic
loop_
_symmetry_equiv_pos_as_xyz
  x,y,z
_cell_length_a	25.8784
_cell_length_b	25.8784
_cell_length_c	6.9669
_cell_angle_alpha	90
_cell_angle_beta	90
_cell_angle_gamma	120
loop_
_atom_site_label
_atom_site_type_symbol
_atom_site_fract_x
_atom_site_fract_y
_atom_site_fract_z
_atom_site_charge
Mof_Fe	Fe	0.3877	0.3523	0.145	0.792
Mof_O 	O 	0.3183	0.2939	0.3488	-0.405
Mof_O 	O 	0.3044	0.2275	0.5952	-0.359
Mof_O 	O 	0.3558	0.2748	0.0063	-0.419
Mof_C 	C 	0.3167	0.2471	0.4193	0.34
Mof_C 	C 	0.3254	0.2055	0.2836	-0.151
Mof_C 	C 	0.3431	0.2248	0.0954	0.188
Mof_C 	C 	0.3171	0.152	0.3493	-0.055
Mof_H 	H 	0.3021	0.1386	0.502	0.063
Mof_Fe	Fe	0.05437	0.68563	0.47833	0.793
Mof_O 	O 	0.98497	0.62723	0.68213	-0.404
Mof_O 	O 	0.97107	0.56083	0.92853	-0.358
Mof_O 	O 	0.02247	0.60813	0.33963	-0.418
Mof_C 	C 	0.98337	0.58043	0.75263	0.341
Mof_C 	C 	0.99207	0.53883	0.61693	-0.15
Mof_C 	C 	0.00977	0.55813	0.42873	0.188
Mof_C 	C 	0.98377	0.48533	0.68263	-0.054
Mof_H 	H 	0.96877	0.47193	0.83533	0.063
Mof_Fe	Fe	0.72103	0.01897	0.81167	0.794
Mof_O 	O 	0.65163	0.96057	0.01547	-0.404
Mof_O 	O 	0.63773	0.89417	0.26187	-0.358
Mof_O 	O 	0.68913	0.94147	0.67297	-0.418
Mof_C 	C 	0.65003	0.91377	0.08597	0.341
Mof_C 	C 	0.65873	0.87217	0.95027	-0.151
Mof_C 	C 	0.67643	0.89147	0.76207	0.188
Mof_C 	C 	0.65043	0.81867	0.01597	-0.054
Mof_H 	H 	0.63543	0.80527	0.16867	0.063
Mof_Fe	Fe	0.6477	0.0354	0.145	0.793
Mof_O 	O 	0.7061	0.0244	0.3488	-0.404
Mof_O 	O 	0.7725	0.0769	0.5952	-0.358
Mof_O 	O 	0.7252	0.081	0.0063	-0.418
Mof_C 	C 	0.7529	0.0696	0.4193	0.34
Mof_C 	C 	0.7945	0.1199	0.2836	-0.15
Mof_C 	C 	0.7752	0.1183	0.0954	0.188
Mof_C 	C 	0.848	0.1651	0.3493	-0.055
Mof_H 	H 	0.8614	0.1635	0.502	0.063
Mof_Fe	Fe	0.31437	0.36873	0.47833	0.793
Mof_O 	O 	0.37277	0.35773	0.68213	-0.404
Mof_O 	O 	0.43917	0.41023	0.92853	-0.358
Mof_O 	O 	0.39187	0.41433	0.33963	-0.418
Mof_C 	C 	0.41957	0.40293	0.75263	0.341
Mof_C 	C 	0.46117	0.45323	0.61693	-0.15
Mof_C 	C 	0.44187	0.45163	0.42873	0.188
Mof_C 	C 	0.51467	0.49843	0.68263	-0.055
Mof_H 	H 	0.52807	0.49683	0.83533	0.063
Mof_Fe	Fe	0.98103	0.70207	0.81167	0.793
Mof_O 	O 	0.03943	0.69107	0.01547	-0.404
Mof_O 	O 	0.10583	0.74357	0.26187	-0.358
Mof_O 	O 	0.05853	0.74767	0.67297	-0.418
Mof_C 	C 	0.08623	0.73627	0.08597	0.341
Mof_C 	C 	0.12783	0.78657	0.95027	-0.151
Mof_C 	C 	0.10853	0.78497	0.76207	0.189
Mof_C 	C 	0.18133	0.83177	0.01597	-0.054
Mof_H 	H 	0.19473	0.83017	0.16867	0.063
Mof_Fe	Fe	0.9646	0.6123	0.145	0.793
Mof_O 	O 	0.9756	0.6817	0.3488	-0.404
Mof_O 	O 	0.9231	0.6956	0.5952	-0.358
Mof_O 	O 	0.919	0.6442	0.0063	-0.418
Mof_C 	C 	0.9304	0.6833	0.4193	0.341
Mof_C 	C 	0.8801	0.6746	0.2836	-0.15
Mof_C 	C 	0.8817	0.6569	0.0954	0.188
Mof_C 	C 	0.8349	0.6829	0.3493	-0.055
Mof_H 	H 	0.8365	0.6979	0.502	0.063
Mof_Fe	Fe	0.63127	0.94563	0.47833	0.793
Mof_O 	O 	0.64227	0.01503	0.68213	-0.404
Mof_O 	O 	0.58977	0.02893	0.92853	-0.358
Mof_O 	O 	0.58567	0.97753	0.33963	-0.418
Mof_C 	C 	0.59707	0.01663	0.75263	0.341
Mof_C 	C 	0.54677	0.00793	0.61693	-0.15
Mof_C 	C 	0.54837	0.99023	0.42873	0.188
Mof_C 	C 	0.50157	0.01623	0.68263	-0.054
Mof_H 	H 	0.50317	0.03123	0.83533	0.063
Mof_Fe	Fe	0.29793	0.27897	0.81167	0.793
Mof_O 	O 	0.30893	0.34837	0.01547	-0.404
Mof_O 	O 	0.25643	0.36227	0.26187	-0.358
Mof_O 	O 	0.25233	0.31087	0.67297	-0.418
Mof_C 	C 	0.26373	0.34997	0.08597	0.341
Mof_C 	C 	0.21343	0.34127	0.95027	-0.151
Mof_C 	C 	0.21503	0.32357	0.76207	0.188
Mof_C 	C 	0.16823	0.34957	0.01597	-0.054
Mof_H 	H 	0.16983	0.36457	0.16867	0.063
Mof_Fe	Fe	0.6123	0.6477	0.855	0.793
Mof_O 	O 	0.6817	0.7061	0.6512	-0.404
Mof_O 	O 	0.6956	0.7725	0.4048	-0.358
Mof_O 	O 	0.6442	0.7252	0.9937	-0.418
Mof_C 	C 	0.6833	0.7529	0.5807	0.341
Mof_C 	C 	0.6746	0.7945	0.7164	-0.15
Mof_C 	C 	0.6569	0.7752	0.9046	0.188
Mof_C 	C 	0.6829	0.848	0.6507	-0.055
Mof_H 	H 	0.6979	0.8614	0.498	0.063
Mof_Fe	Fe	0.27897	0.98103	0.18833	0.794
Mof_O 	O 	0.34837	0.03943	0.98453	-0.404
Mof_O 	O 	0.36227	0.10583	0.73813	-0.358
Mof_O 	O 	0.31087	0.05853	0.32703	-0.418
Mof_C 	C 	0.34997	0.08623	0.91403	0.341
Mof_C 	C 	0.34127	0.12783	0.04973	-0.151
Mof_C 	C 	0.32357	0.10853	0.23793	0.188
Mof_C 	C 	0.34957	0.18133	0.98403	-0.054
Mof_H 	H 	0.36457	0.19473	0.83133	0.063
Mof_Fe	Fe	0.94563	0.31437	0.52167	0.793
Mof_O 	O 	0.01503	0.37277	0.31787	-0.404
Mof_O 	O 	0.02893	0.43917	0.07147	-0.358
Mof_O 	O 	0.97753	0.39187	0.66037	-0.418
Mof_C 	C 	0.01663	0.41957	0.24737	0.341
Mof_C 	C 	0.00793	0.46117	0.38307	-0.15
Mof_C 	C 	0.99023	0.44187	0.57127	0.188
Mof_C 	C 	0.01623	0.51467	0.31737	-0.054
Mof_H 	H 	0.03123	0.52807	0.16467	0.063
Mof_Fe	Fe	0.3523	0.9646	0.855	0.793
Mof_O 	O 	0.2939	0.9756	0.6512	-0.404
Mof_O 	O 	0.2275	0.9231	0.4048	-0.358
Mof_O 	O 	0.2748	0.919	0.9937	-0.418
Mof_C 	C 	0.2471	0.9304	0.5807	0.34
Mof_C 	C 	0.2055	0.8801	0.7164	-0.15
Mof_C 	C 	0.2248	0.8817	0.9046	0.188
Mof_C 	C 	0.152	0.8349	0.6507	-0.055
Mof_H 	H 	0.1386	0.8365	0.498	0.063
Mof_Fe	Fe	0.01897	0.29793	0.18833	0.793
Mof_O 	O 	0.96057	0.30893	0.98453	-0.404
Mof_O 	O 	0.89417	0.25643	0.73813	-0.358
Mof_O 	O 	0.94147	0.25233	0.32703	-0.418
Mof_C 	C 	0.91377	0.26373	0.91403	0.341
Mof_C 	C 	0.87217	0.21343	0.04973	-0.151
Mof_C 	C 	0.89147	0.21503	0.23793	0.189
Mof_C 	C 	0.81867	0.16823	0.98403	-0.054
Mof_H 	H 	0.80527	0.16983	0.83133	0.063
Mof_Fe	Fe	0.68563	0.63127	0.52167	0.793
Mof_O 	O 	0.62723	0.64227	0.31787	-0.404
Mof_O 	O 	0.56083	0.58977	0.07147	-0.358
Mof_O 	O 	0.60813	0.58567	0.66037	-0.418
Mof_C 	C 	0.58043	0.59707	0.24737	0.341
Mof_C 	C 	0.53883	0.54677	0.38307	-0.15
Mof_C 	C 	0.55813	0.54837	0.57127	0.188
Mof_C 	C 	0.48533	0.50157	0.31737	-0.055
Mof_H 	H 	0.47193	0.50317	0.16467	0.063
Mof_Fe	Fe	0.0354	0.3877	0.855	0.793
Mof_O 	O 	0.0244	0.3183	0.6512	-0.404
Mof_O 	O 	0.0769	0.3044	0.4048	-0.358
Mof_O 	O 	0.081	0.3558	0.9937	-0.418
Mof_C 	C 	0.0696	0.3167	0.5807	0.341
Mof_C 	C 	0.1199	0.3254	0.7164	-0.15
Mof_C 	C 	0.1183	0.3431	0.9046	0.188
Mof_C 	C 	0.1651	0.3171	0.6507	-0.055
Mof_H 	H 	0.1635	0.3021	0.498	0.063
Mof_Fe	Fe	0.70207	0.72103	0.18833	0.793
Mof_O 	O 	0.69107	0.65163	0.98453	-0.404
Mof_O 	O 	0.74357	0.63773	0.73813	-0.358
Mof_O 	O 	0.74767	0.68913	0.32703	-0.418
Mof_C 	C 	0.73627	0.65003	0.91403	0.341
Mof_C 	C 	0.78657	0.65873	0.04973	-0.151
Mof_C 	C 	0.78497	0.67643	0.23793	0.188
Mof_C 	C 	0.83177	0.65043	0.98403	-0.054
Mof_H 	H 	0.83017	0.63543	0.83133	0.063
Mof_Fe	Fe	0.36873	0.05437	0.52167	0.793
Mof_O 	O 	0.35773	0.98497	0.31787	-0.404
Mof_O 	O 	0.41023	0.97107	0.07147	-0.358
Mof_O 	O 	0.41433	0.02247	0.66037	-0.418
Mof_C 	C 	0.40293	0.98337	0.24737	0.341
Mof_C 	C 	0.45323	0.99207	0.38307	-0.15
Mof_C 	C 	0.45163	0.00977	0.57127	0.188
Mof_C 	C 	0.49843	0.98377	0.31737	-0.054
Mof_H 	H 	0.49683	0.96877	0.16467	0.063
_end
