# CIF file generated by openbabel 3.1.0, see https://openbabel.org
data_I
_chemical_name_common 'FUTZOK_clean'
_cell_length_a 10.577
_cell_length_b 10.577
_cell_length_c 14.7681
_cell_angle_alpha 90.5975
_cell_angle_beta 90.5975
_cell_angle_gamma 105.754
_space_group_name_H-M_alt 'P 1'
_space_group_name_Hall 'P 1'
loop_
    _symmetry_equiv_pos_as_xyz
    x,y,z
loop_
    _atom_site_label
    _atom_site_type_symbol
    _atom_site_fract_x
    _atom_site_fract_y
    _atom_site_fract_z
    _atom_site_occupancy
    Gd1      Gd       0.32477    0.42739    0.94254    1.000
    Gd2      Gd       0.07261    0.17523    0.55746    1.000
    Gd3      Gd       0.67523    0.57261    0.05746    1.000
    Gd4      Gd       0.92739    0.82477    0.44254    1.000
    H1       H        0.03910    0.67490    0.15940    1.000
    H2       H        0.15540    0.80280    0.16950    1.000
    H3       H        0.38550    0.67650    0.25290    1.000
    H4       H        0.35940    0.79360    0.19900    1.000
    H5       H        0.43820    0.21040    0.21250    1.000
    H6       H        0.44680    0.35440    0.24460    1.000
    H7       H        0.82510    0.46090    0.34060    1.000
    H8       H        0.69720    0.34460    0.33050    1.000
    H9       H        0.82350    0.11450    0.24710    1.000
    H10      H        0.70640    0.14060    0.30100    1.000
    H11      H        0.28960    0.06180    0.28750    1.000
    H12      H        0.14560    0.05320    0.25540    1.000
    H13      H        0.96090    0.32510    0.84060    1.000
    H14      H        0.84460    0.19720    0.83050    1.000
    H15      H        0.61450    0.32350    0.74710    1.000
    H16      H        0.64060    0.20640    0.80100    1.000
    H17      H        0.56180    0.78960    0.78750    1.000
    H18      H        0.55320    0.64560    0.75540    1.000
    H19      H        0.17490    0.53910    0.65940    1.000
    H20      H        0.30280    0.65540    0.66950    1.000
    H21      H        0.17650    0.88550    0.75290    1.000
    H22      H        0.29360    0.85940    0.69900    1.000
    H23      H        0.71040    0.93820    0.71250    1.000
    H24      H        0.85440    0.94680    0.74460    1.000
    C1       C        0.15430    0.51410    0.23070    1.000
    C2       C        0.11070    0.72170    0.19910    1.000
    C3       C        0.05340    0.75560    0.28620    1.000
    C4       C        0.34130    0.69870    0.20000    1.000
    C5       C        0.40000    0.65360    0.11540    1.000
    C6       C        0.39430    0.27970    0.21000    1.000
    C7       C        0.38370    0.31950    0.11160    1.000
    C8       C        0.98590    0.34570    0.26930    1.000
    C9       C        0.77830    0.38930    0.30090    1.000
    C10      C        0.74440    0.44660    0.21380    1.000
    C11      C        0.80130    0.15870    0.30000    1.000
    C12      C        0.84640    0.10000    0.38460    1.000
    C13      C        0.22030    0.10570    0.29000    1.000
    C14      C        0.18050    0.11630    0.38840    1.000
    C15      C        0.84570    0.48590    0.76930    1.000
    C16      C        0.88930    0.27830    0.80090    1.000
    C17      C        0.94660    0.24440    0.71380    1.000
    C18      C        0.65870    0.30130    0.80000    1.000
    C19      C        0.60000    0.34640    0.88460    1.000
    C20      C        0.60570    0.72030    0.79000    1.000
    C21      C        0.61630    0.68050    0.88840    1.000
    C22      C        0.01410    0.65430    0.73070    1.000
    C23      C        0.22170    0.61070    0.69910    1.000
    C24      C        0.25560    0.55340    0.78620    1.000
    C25      C        0.19870    0.84130    0.70000    1.000
    C26      C        0.15360    0.90000    0.61540    1.000
    C27      C        0.77970    0.89430    0.71000    1.000
    C28      C        0.81950    0.88370    0.61160    1.000
    C29      C        0.18580    0.31420    0.25000    1.000
    C30      C        0.81420    0.68580    0.75000    1.000
    N1       N        0.24090    0.44090    0.23120    1.000
    N2       N        0.20140    0.64300    0.20960    1.000
    N3       N        0.05910    0.25910    0.26880    1.000
    N4       N        0.85700    0.29860    0.29040    1.000
    N5       N        0.75910    0.55910    0.76880    1.000
    N6       N        0.79860    0.35700    0.79040    1.000
    N7       N        0.94090    0.74090    0.73120    1.000
    N8       N        0.14300    0.70140    0.70960    1.000
    N9       N        0.02670    0.47330    0.25000    1.000
    N10      N        0.26560    0.23440    0.25000    1.000
    N11      N        0.97330    0.52670    0.75000    1.000
    N12      N        0.73440    0.76560    0.75000    1.000
    O1       O        0.95050    0.79570    0.28010    1.000
    O2       O        0.10510    0.75090    0.36150    1.000
    O3       O        0.32420    0.59260    0.05420    1.000
    O4       O        0.52450    0.68230    0.11510    1.000
    O5       O        0.28610    0.26370    0.06400    1.000
    O6       O        0.47600    0.40980    0.07900    1.000
    O7       O        0.70430    0.54950    0.21990    1.000
    O8       O        0.74910    0.39490    0.13850    1.000
    O9       O        0.90740    0.17580    0.44580    1.000
    O10      O        0.81770    0.97550    0.38490    1.000
    O11      O        0.23630    0.21390    0.43600    1.000
    O12      O        0.09020    0.02400    0.42100    1.000
    O13      O        0.04950    0.20430    0.71990    1.000
    O14      O        0.89490    0.24910    0.63850    1.000
    O15      O        0.67580    0.40740    0.94580    1.000
    O16      O        0.47550    0.31770    0.88490    1.000
    O17      O        0.71390    0.73630    0.93600    1.000
    O18      O        0.52400    0.59020    0.92100    1.000
    O19      O        0.29570    0.45050    0.78010    1.000
    O20      O        0.25090    0.60510    0.86150    1.000
    O21      O        0.09260    0.82420    0.55420    1.000
    O22      O        0.18230    0.02450    0.61510    1.000
    O23      O        0.76370    0.78610    0.56400    1.000
    O24      O        0.90980    0.97600    0.57900    1.000
