# CIF file generated by openbabel 3.1.0, see https://openbabel.org
data_I
_chemical_name_common 'image0'
_cell_length_a 18.255
_cell_length_b 8.834
_cell_length_c 20.698
_cell_angle_alpha 90
_cell_angle_beta 112.47
_cell_angle_gamma 90
_space_group_name_H-M_alt 'P 1'
_space_group_name_Hall 'P 1'
loop_
    _symmetry_equiv_pos_as_xyz
    x,y,z
loop_
    _atom_site_label
    _atom_site_type_symbol
    _atom_site_fract_x
    _atom_site_fract_y
    _atom_site_fract_z
    _atom_site_occupancy
    La1      La       0.97813    0.47166    0.23353    1.000
    La2      La       0.00138    0.97264    0.25762    1.000
    O1       O        0.09160    0.03130    0.18820    1.000
    O2       O        0.04360    0.24270    0.21020    1.000
    O3       O        0.01550    0.24980    0.82140    1.000
    O4       O        0.02850    0.44890    0.88890    1.000
    O5       O        0.89770    0.05930    0.14501    1.000
    O6       O        0.87540    0.30700    0.14591    1.000
    O7       O        0.62510    0.40330    0.84680    1.000
    O8       O        0.64960    0.63920    0.82560    1.000
    O9       O        0.95500    0.20830    0.29586    1.000
    O10      O        0.89270    0.41230    0.30630    1.000
    O11      O        0.98730    0.10470    0.61845    1.000
    O12      O        0.00550    0.30220    0.68705    1.000
    C1       C        0.08130    0.17060    0.17990    1.000
    C2       C        0.11480    0.25580    0.13400    1.000
    H1       H        0.10070    0.36190    0.13280    1.000
    H2       H        0.17220    0.24840    0.15390    1.000
    C3       C        0.08400    0.19410    0.06100    1.000
    H3       H        0.09770    0.09540    0.05480    1.000
    C4       C        0.03960    0.26890    0.00600    1.000
    H4       H        0.02730    0.36830    0.01270    1.000
    C5       C        0.00600    0.20880    0.93180    1.000
    H5       H        0.02990    0.11120    0.93110    1.000
    H6       H        0.94950    0.19290    0.91830    1.000
    C6       C        0.01860    0.30940    0.87860    1.000
    C7       C        0.87520    0.18460    0.11590    1.000
    C8       C        0.84970    0.18270    0.03770    1.000
    H7       H        0.89300    0.14090    0.02700    1.000
    H8       H        0.80540    0.11330    0.01890    1.000
    C9       C        0.82570    0.33010    0.99900    1.000
    H9       H        0.84520    0.41920    0.02340    1.000
    C10      C        0.77990    0.34030    0.93430    1.000
    H10      H        0.75680    0.25140    0.91140    1.000
    C11      C        0.76060    0.48240    0.89280    1.000
    H11      H        0.78600    0.47940    0.85930    1.000
    H12      H        0.78310    0.56680    0.92410    1.000
    C12      C        0.67340    0.51170    0.85370    1.000
    C13      C        0.91300    0.27860    0.32300    1.000
    C14      C        0.89230    0.19980    0.37880    1.000
    H13      H        0.89280    0.09090    0.37310    1.000
    H14      H        0.83970    0.22970    0.37520    1.000
    C15      C        0.95390    0.24600    0.44990    1.000
    C16      C        0.93510    0.30700    0.50030    1.000
    C17      C        0.99540    0.34630    0.56910    1.000
    H15      H        0.98650    0.44950    0.58030    1.000
    H16      H        0.04730    0.34240    0.56640    1.000
    C18      C        0.99540    0.24380    0.62730    1.000
    C19      C        0.91400    0.29140    0.44570    1.000
    C20      C        0.97130    0.25800    0.49900    1.000
    La3      La       0.52187    0.97166    0.26647    1.000
    La4      La       0.49862    0.47264    0.24238    1.000
    O13      O        0.40840    0.53130    0.31180    1.000
    O14      O        0.45640    0.74270    0.28980    1.000
    O15      O        0.48450    0.74980    0.67860    1.000
    O16      O        0.47150    0.94890    0.61110    1.000
    O17      O        0.60230    0.55930    0.35499    1.000
    O18      O        0.62460    0.80700    0.35409    1.000
    O19      O        0.87490    0.90330    0.65320    1.000
    O20      O        0.85040    0.13920    0.67440    1.000
    O21      O        0.54500    0.70830    0.20414    1.000
    O22      O        0.60730    0.91230    0.19370    1.000
    O23      O        0.51270    0.60470    0.88155    1.000
    O24      O        0.49450    0.80220    0.81295    1.000
    C21      C        0.41870    0.67060    0.32010    1.000
    C22      C        0.38520    0.75580    0.36600    1.000
    H17      H        0.39930    0.86190    0.36720    1.000
    H18      H        0.32780    0.74840    0.34610    1.000
    C23      C        0.41600    0.69410    0.43900    1.000
    H19      H        0.40230    0.59540    0.44520    1.000
    C24      C        0.46040    0.76890    0.49400    1.000
    H20      H        0.47270    0.86830    0.48730    1.000
    C25      C        0.49400    0.70880    0.56820    1.000
    H21      H        0.47010    0.61120    0.56890    1.000
    H22      H        0.55050    0.69290    0.58170    1.000
    C26      C        0.48140    0.80940    0.62140    1.000
    C27      C        0.62480    0.68460    0.38410    1.000
    C28      C        0.65030    0.68270    0.46230    1.000
    H23      H        0.60700    0.64090    0.47300    1.000
    H24      H        0.69460    0.61330    0.48110    1.000
    C29      C        0.67430    0.83010    0.50100    1.000
    H25      H        0.65480    0.91920    0.47660    1.000
    C30      C        0.72010    0.84030    0.56570    1.000
    H26      H        0.74320    0.75140    0.58860    1.000
    C31      C        0.73940    0.98240    0.60720    1.000
    H27      H        0.71400    0.97940    0.64070    1.000
    H28      H        0.71690    0.06680    0.57590    1.000
    C32      C        0.82660    0.01170    0.64630    1.000
    C33      C        0.58700    0.77860    0.17700    1.000
    C34      C        0.60770    0.69980    0.12120    1.000
    H29      H        0.60720    0.59090    0.12690    1.000
    H30      H        0.66030    0.72970    0.12480    1.000
    C35      C        0.54610    0.74600    0.05010    1.000
    C36      C        0.56490    0.80700    0.99970    1.000
    C37      C        0.50460    0.84630    0.93090    1.000
    H31      H        0.51350    0.94950    0.91970    1.000
    H32      H        0.45270    0.84240    0.93360    1.000
    C38      C        0.50460    0.74380    0.87270    1.000
    C39      C        0.58600    0.79140    0.05430    1.000
    C40      C        0.52870    0.75800    0.00100    1.000
    La5      La       0.02187    0.52834    0.76647    1.000
    La6      La       0.99862    0.02736    0.74238    1.000
    O25      O        0.90840    0.96870    0.81180    1.000
    O26      O        0.95640    0.75730    0.78980    1.000
    O27      O        0.98450    0.75020    0.17860    1.000
    O28      O        0.97150    0.55110    0.11110    1.000
    O29      O        0.10230    0.94070    0.85499    1.000
    O30      O        0.12460    0.69300    0.85409    1.000
    O31      O        0.37490    0.59670    0.15320    1.000
    O32      O        0.35040    0.36080    0.17440    1.000
    O33      O        0.04500    0.79170    0.70414    1.000
    O34      O        0.10730    0.58770    0.69370    1.000
    O35      O        0.01270    0.89530    0.38155    1.000
    O36      O        0.99450    0.69780    0.31295    1.000
    C41      C        0.91870    0.82940    0.82010    1.000
    C42      C        0.88520    0.74420    0.86600    1.000
    H33      H        0.89930    0.63810    0.86720    1.000
    H34      H        0.82780    0.75160    0.84610    1.000
    C43      C        0.91600    0.80590    0.93900    1.000
    H35      H        0.90230    0.90460    0.94520    1.000
    C44      C        0.96040    0.73110    0.99400    1.000
    H36      H        0.97270    0.63170    0.98730    1.000
    C45      C        0.99400    0.79120    0.06820    1.000
    H37      H        0.97010    0.88880    0.06890    1.000
    H38      H        0.05050    0.80710    0.08170    1.000
    C46      C        0.98140    0.69060    0.12140    1.000
    C47      C        0.12480    0.81540    0.88410    1.000
    C48      C        0.15030    0.81730    0.96230    1.000
    H39      H        0.10700    0.85910    0.97300    1.000
    H40      H        0.19460    0.88670    0.98110    1.000
    C49      C        0.17430    0.66990    0.00100    1.000
    H41      H        0.15480    0.58080    0.97660    1.000
    C50      C        0.22010    0.65970    0.06570    1.000
    H42      H        0.24320    0.74860    0.08860    1.000
    C51      C        0.23940    0.51760    0.10720    1.000
    H43      H        0.21400    0.52060    0.14070    1.000
    H44      H        0.21690    0.43320    0.07590    1.000
    C52      C        0.32660    0.48830    0.14630    1.000
    C53      C        0.08700    0.72140    0.67700    1.000
    C54      C        0.10770    0.80020    0.62120    1.000
    H45      H        0.10720    0.90910    0.62690    1.000
    H46      H        0.16030    0.77030    0.62480    1.000
    C55      C        0.04610    0.75400    0.55010    1.000
    C56      C        0.06490    0.69300    0.49970    1.000
    C57      C        0.00460    0.65370    0.43090    1.000
    H47      H        0.01350    0.55050    0.41970    1.000
    H48      H        0.95270    0.65760    0.43360    1.000
    C58      C        0.00460    0.75620    0.37270    1.000
    C59      C        0.08600    0.70860    0.55430    1.000
    C60      C        0.02870    0.74200    0.50100    1.000
    La7      La       0.47813    0.02834    0.73353    1.000
    La8      La       0.50138    0.52736    0.75762    1.000
    O37      O        0.59160    0.46870    0.68820    1.000
    O38      O        0.54360    0.25730    0.71020    1.000
    O39      O        0.51550    0.25020    0.32140    1.000
    O40      O        0.52850    0.05110    0.38890    1.000
    O41      O        0.39770    0.44070    0.64501    1.000
    O42      O        0.37540    0.19300    0.64591    1.000
    O43      O        0.12510    0.09670    0.34680    1.000
    O44      O        0.14960    0.86080    0.32560    1.000
    O45      O        0.45500    0.29170    0.79586    1.000
    O46      O        0.39270    0.08770    0.80630    1.000
    O47      O        0.48730    0.39530    0.11845    1.000
    O48      O        0.50550    0.19780    0.18705    1.000
    C61      C        0.58130    0.32940    0.67990    1.000
    C62      C        0.61480    0.24420    0.63400    1.000
    H49      H        0.60070    0.13810    0.63280    1.000
    H50      H        0.67220    0.25160    0.65390    1.000
    C63      C        0.58400    0.30590    0.56100    1.000
    H51      H        0.59770    0.40460    0.55480    1.000
    C64      C        0.53960    0.23110    0.50600    1.000
    H52      H        0.52730    0.13170    0.51270    1.000
    C65      C        0.50600    0.29120    0.43180    1.000
    H53      H        0.52990    0.38880    0.43110    1.000
    H54      H        0.44950    0.30710    0.41830    1.000
    C66      C        0.51860    0.19060    0.37860    1.000
    C67      C        0.37520    0.31540    0.61590    1.000
    C68      C        0.34970    0.31730    0.53770    1.000
    H55      H        0.39300    0.35910    0.52700    1.000
    H56      H        0.30540    0.38670    0.51890    1.000
    C69      C        0.32570    0.16990    0.49900    1.000
    H57      H        0.34520    0.08080    0.52340    1.000
    C70      C        0.27990    0.15970    0.43430    1.000
    H58      H        0.25680    0.24860    0.41140    1.000
    C71      C        0.26060    0.01760    0.39280    1.000
    H59      H        0.28600    0.02060    0.35930    1.000
    H60      H        0.28310    0.93320    0.42410    1.000
    C72      C        0.17340    0.98830    0.35370    1.000
    C73      C        0.41300    0.22140    0.82300    1.000
    C74      C        0.39230    0.30020    0.87880    1.000
    H61      H        0.39280    0.40910    0.87310    1.000
    H62      H        0.33970    0.27030    0.87520    1.000
    C75      C        0.45390    0.25400    0.94990    1.000
    C76      C        0.43510    0.19300    0.00030    1.000
    C77      C        0.49540    0.15370    0.06910    1.000
    H63      H        0.48650    0.05050    0.08030    1.000
    H64      H        0.54730    0.15760    0.06640    1.000
    C78      C        0.49540    0.25620    0.12730    1.000
    C79      C        0.41400    0.20860    0.94570    1.000
    C80      C        0.47130    0.24200    0.99900    1.000
