# CIF file generated by openbabel 3.1.0, see https://openbabel.org
data_I
_chemical_name_common 'image0'
_cell_length_a 7.7703
_cell_length_b 9.1499
_cell_length_c 14.4685
_cell_angle_alpha 89.965
_cell_angle_beta 87.05
_cell_angle_gamma 65.332
_space_group_name_H-M_alt 'P 1'
_space_group_name_Hall 'P 1'
loop_
    _symmetry_equiv_pos_as_xyz
    x,y,z
loop_
    _atom_site_label
    _atom_site_type_symbol
    _atom_site_fract_x
    _atom_site_fract_y
    _atom_site_fract_z
    _atom_site_occupancy
    Zn1      Zn       0.21857    0.96890    0.11066    1.000
    Zn2      Zn       0.40719    0.93917    0.37925    1.000
    Zn3      Zn       0.70314    0.30905    0.23582    1.000
    P1       P        0.52300    0.67870    0.21007    1.000
    H1       H        0.69800    0.65300    0.21200    1.000
    P2       P        0.13750    0.23630    0.27012    1.000
    H2       H        0.20900    0.35400    0.27700    1.000
    P3       P        0.32210    0.89040    0.59355    1.000
    H3       H        0.15300    0.93000    0.60210    1.000
    P4       P        0.19930    0.99990    0.88901    1.000
    H4       H        0.29700    0.05300    0.83700    1.000
    O1       O        0.45040    0.77790    0.12450    1.000
    O2       O        0.22800    0.14650    0.17960    1.000
    O3       O        0.22500    0.04410    0.98600    1.000
    O4       O        0.99940    0.08010    0.85850    1.000
    O5       O        0.41980    0.76680    0.29800    1.000
    O6       O        0.19140    0.13330    0.35490    1.000
    O7       O        0.38090    0.83970    0.49410    1.000
    O8       O        0.35660    0.03600    0.62300    1.000
    O9       O        0.41390    0.74550    0.65440    1.000
    O10      O        0.92610    0.32990    0.26910    1.000
    O11      O        0.51690    0.51440    0.20200    1.000
    O12      O        0.28250    0.81770    0.87330    1.000
    Zn4      Zn       0.78143    0.03110    0.88934    1.000
    Zn5      Zn       0.59281    0.06083    0.62075    1.000
    Zn6      Zn       0.29686    0.69095    0.76418    1.000
    P5       P        0.47700    0.32130    0.78993    1.000
    H5       H        0.30200    0.34700    0.78800    1.000
    P6       P        0.86250    0.76370    0.72988    1.000
    H6       H        0.79100    0.64600    0.72300    1.000
    P7       P        0.67790    0.10960    0.40645    1.000
    H7       H        0.84700    0.07000    0.39790    1.000
    P8       P        0.80070    0.00010    0.11099    1.000
    H8       H        0.70300    0.94700    0.16300    1.000
    O13      O        0.54960    0.22210    0.87550    1.000
    O14      O        0.77200    0.85350    0.82040    1.000
    O15      O        0.77500    0.95590    0.01400    1.000
    O16      O        0.00060    0.91990    0.14150    1.000
    O17      O        0.58020    0.23320    0.70200    1.000
    O18      O        0.80860    0.86670    0.64510    1.000
    O19      O        0.61910    0.16030    0.50590    1.000
    O20      O        0.64340    0.96400    0.37700    1.000
    O21      O        0.58610    0.25450    0.34560    1.000
    O22      O        0.07390    0.67010    0.73090    1.000
    O23      O        0.48310    0.48560    0.79800    1.000
    O24      O        0.71750    0.18230    0.12670    1.000
