data_functionalizedCrystal
_audit_creation_method	'EQeq! by Chris Wilmer'
_symmetry_space_group_name_H-M	'P1'
_symmetry_Int_Tables_number	1
_symmetry_cell_setting	triclinic
loop_
_symmetry_equiv_pos_as_xyz
  x,y,z
_cell_length_a	9.7166
_cell_length_b	11.926
_cell_length_c	12.38
_cell_angle_alpha	90
_cell_angle_beta	99.42
_cell_angle_gamma	90
loop_
_atom_site_label
_atom_site_type_symbol
_atom_site_fract_x
_atom_site_fract_y
_atom_site_fract_z
_atom_site_charge
Mof_Nd	Nd	0.78712	0.51854	0.67074	2.531
Mof_Nd	Nd	0.71288	0.01854	0.82926	2.507
Mof_Nd	Nd	0.21288	0.48146	0.32926	2.532
Mof_Nd	Nd	0.28712	0.98146	0.17074	2.508
Mof_C 	C 	0.0625	0.5017	0.5472	0.292
Mof_C 	C 	0.494	0.5642	0.4982	0.279
Mof_C 	C 	0.6992	0.7494	0.7822	0.289
Mof_C 	C 	0.7985	0.7929	0.7042	0.27
Mof_C 	C 	0.4375	0.0017	0.9528	0.279
Mof_C 	C 	0.006	0.0642	0.0018	0.29
Mof_C 	C 	0.8008	0.2494	0.7178	0.289
Mof_C 	C 	0.7015	0.2929	0.7958	0.27
Mof_C 	C 	0.9375	0.4983	0.4528	0.292
Mof_C 	C 	0.506	0.4358	0.5018	0.279
Mof_C 	C 	0.3008	0.2506	0.2178	0.289
Mof_C 	C 	0.2015	0.2071	0.2958	0.27
Mof_C 	C 	0.5625	0.9983	0.0472	0.279
Mof_C 	C 	0.994	0.9358	0.9982	0.29
Mof_C 	C 	0.1992	0.7506	0.2822	0.289
Mof_C 	C 	0.2985	0.7071	0.2042	0.27
Mof_O 	O 	0.181	0.4868	0.523	-0.459
Mof_O 	O 	0.0346	0.518	0.6412	-0.466
Mof_O 	O 	0.3996	0.6063	0.4299	-0.442
Mof_O 	O 	0.5811	0.6183	0.5653	-0.445
Mof_O 	O 	0.6949	0.6458	0.7966	-0.48
Mof_O 	O 	0.6323	0.822	0.8257	-0.458
Mof_O 	O 	0.859	0.7195	0.6561	-0.445
Mof_O 	O 	0.8102	0.8966	0.6963	-0.452
Mof_O 	O 	0.319	0.9868	0.977	-0.441
Mof_O 	O 	0.4654	0.018	0.8588	-0.463
Mof_O 	O 	0.1004	0.1063	0.0701	-0.44
Mof_O 	O 	0.9189	0.1183	0.9347	-0.458
Mof_O 	O 	0.8051	0.1458	0.7034	-0.479
Mof_O 	O 	0.8677	0.322	0.6743	-0.465
Mof_O 	O 	0.641	0.2195	0.8439	-0.445
Mof_O 	O 	0.6898	0.3966	0.8037	-0.459
Mof_O 	O 	0.819	0.5132	0.477	-0.459
Mof_O 	O 	0.9654	0.482	0.3588	-0.466
Mof_O 	O 	0.6004	0.3937	0.5701	-0.442
Mof_O 	O 	0.4189	0.3817	0.4347	-0.445
Mof_O 	O 	0.3051	0.3542	0.2034	-0.48
Mof_O 	O 	0.3677	0.178	0.1743	-0.458
Mof_O 	O 	0.141	0.2805	0.3439	-0.445
Mof_O 	O 	0.1898	0.1034	0.3037	-0.452
Mof_O 	O 	0.681	0.0132	0.023	-0.441
Mof_O 	O 	0.5346	0.982	0.1412	-0.463
Mof_O 	O 	0.8996	0.8937	0.9299	-0.44
Mof_O 	O 	0.0811	0.8817	0.0653	-0.458
Mof_O 	O 	0.1949	0.8542	0.2966	-0.479
Mof_O 	O 	0.1323	0.678	0.3257	-0.465
Mof_O 	O 	0.359	0.7805	0.1561	-0.445
Mof_O 	O 	0.3102	0.6034	0.1963	-0.459
_end
