# CIF file generated by openbabel 3.1.0, see https://openbabel.org
data_I
_chemical_name_common 'SOJDEB_clean'
_cell_length_a 11.3966
_cell_length_b 11.4787
_cell_length_c 16.8775
_cell_angle_alpha 90
_cell_angle_beta 90
_cell_angle_gamma 90
_space_group_name_H-M_alt 'P 1'
_space_group_name_Hall 'P 1'
loop_
    _symmetry_equiv_pos_as_xyz
    x,y,z
loop_
    _atom_site_label
    _atom_site_type_symbol
    _atom_site_fract_x
    _atom_site_fract_y
    _atom_site_fract_z
    _atom_site_occupancy
    Cr1      Cr       0.00000    0.50000    0.50000    1.000
    Cr2      Cr       0.00000    0.00000    0.00000    1.000
    Cr3      Cr       0.50000    0.50000    0.00000    1.000
    Cr4      Cr       0.50000    0.00000    0.50000    1.000
    C1       C        0.77160    0.60380    0.58480    1.000
    C2       C        0.63420    0.75860    0.59030    1.000
    C3       C        0.70600    0.51250    0.73010    1.000
    C4       C        0.54810    0.61790    0.83110    1.000
    C5       C        0.49980    0.76960    0.73780    1.000
    C6       C        0.68220    0.65980    0.62810    1.000
    C7       C        0.64910    0.61970    0.70330    1.000
    C8       C        0.56670    0.66720    0.75470    1.000
    C9       C        0.22840    0.89620    0.08480    1.000
    C10      C        0.36580    0.74140    0.09030    1.000
    C11      C        0.29400    0.98750    0.23010    1.000
    C12      C        0.45190    0.88210    0.33110    1.000
    C13      C        0.50020    0.73040    0.23780    1.000
    C14      C        0.31780    0.84020    0.12810    1.000
    C15      C        0.35090    0.88030    0.20330    1.000
    C16      C        0.43330    0.83280    0.25470    1.000
    C17      C        0.27160    0.39620    0.91520    1.000
    C18      C        0.13420    0.24140    0.90970    1.000
    C19      C        0.20600    0.48750    0.76990    1.000
    C20      C        0.04810    0.38210    0.66890    1.000
    C21      C        0.99980    0.23040    0.76220    1.000
    C22      C        0.18220    0.34020    0.87190    1.000
    C23      C        0.14910    0.38030    0.79670    1.000
    C24      C        0.06670    0.33280    0.74530    1.000
    C25      C        0.72840    0.10380    0.41520    1.000
    C26      C        0.86580    0.25860    0.40970    1.000
    C27      C        0.79400    0.01250    0.26990    1.000
    C28      C        0.95190    0.11790    0.16890    1.000
    C29      C        0.00020    0.26960    0.26220    1.000
    C30      C        0.81780    0.15980    0.37190    1.000
    C31      C        0.85090    0.11970    0.29670    1.000
    C32      C        0.93330    0.16720    0.24530    1.000
    C33      C        0.22840    0.39620    0.41520    1.000
    C34      C        0.36580    0.24140    0.40970    1.000
    C35      C        0.29400    0.48750    0.26990    1.000
    C36      C        0.45190    0.38210    0.16890    1.000
    C37      C        0.50020    0.23040    0.26220    1.000
    C38      C        0.31780    0.34020    0.37190    1.000
    C39      C        0.35090    0.38030    0.29670    1.000
    C40      C        0.43330    0.33280    0.24530    1.000
    C41      C        0.77160    0.10380    0.91520    1.000
    C42      C        0.63420    0.25860    0.90970    1.000
    C43      C        0.70600    0.01250    0.76990    1.000
    C44      C        0.54810    0.11790    0.66890    1.000
    C45      C        0.49980    0.26960    0.76220    1.000
    C46      C        0.68220    0.15980    0.87190    1.000
    C47      C        0.64910    0.11970    0.79670    1.000
    C48      C        0.56670    0.16720    0.74530    1.000
    C49      C        0.72840    0.60380    0.08480    1.000
    C50      C        0.86580    0.75860    0.09030    1.000
    C51      C        0.79400    0.51250    0.23010    1.000
    C52      C        0.95190    0.61790    0.33110    1.000
    C53      C        0.00020    0.76960    0.23780    1.000
    C54      C        0.81780    0.65980    0.12810    1.000
    C55      C        0.85090    0.61970    0.20330    1.000
    C56      C        0.93330    0.66720    0.25470    1.000
    C57      C        0.27160    0.89620    0.58480    1.000
    C58      C        0.13420    0.74140    0.59030    1.000
    C59      C        0.20600    0.98750    0.73010    1.000
    C60      C        0.04810    0.88210    0.83110    1.000
    C61      C        0.99980    0.73040    0.73780    1.000
    C62      C        0.18220    0.84020    0.62810    1.000
    C63      C        0.14910    0.88030    0.70330    1.000
    C64      C        0.06670    0.83280    0.75470    1.000
    N1       N        0.84540    0.56150    0.54850    1.000
    N2       N        0.59830    0.83770    0.55540    1.000
    N3       N        0.74840    0.42780    0.75050    1.000
    N4       N        0.53330    0.58230    0.89323    1.000
    N5       N        0.44380    0.85040    0.72640    1.000
    N6       N        0.15460    0.93850    0.04850    1.000
    N7       N        0.40170    0.66230    0.05540    1.000
    N8       N        0.25160    0.07220    0.25050    1.000
    N9       N        0.46670    0.91770    0.39323    1.000
    N10      N        0.55620    0.64960    0.22640    1.000
    N11      N        0.34540    0.43850    0.95150    1.000
    N12      N        0.09830    0.16230    0.94460    1.000
    N13      N        0.24840    0.57220    0.74950    1.000
    N14      N        0.03330    0.41770    0.60677    1.000
    N15      N        0.94380    0.14960    0.77360    1.000
    N16      N        0.65460    0.06150    0.45150    1.000
    N17      N        0.90170    0.33770    0.44460    1.000
    N18      N        0.75160    0.92780    0.24950    1.000
    N19      N        0.96670    0.08230    0.10677    1.000
    N20      N        0.05620    0.35040    0.27360    1.000
    N21      N        0.15460    0.43850    0.45150    1.000
    N22      N        0.40170    0.16230    0.44460    1.000
    N23      N        0.25160    0.57220    0.24950    1.000
    N24      N        0.46670    0.41770    0.10677    1.000
    N25      N        0.55620    0.14960    0.27360    1.000
    N26      N        0.84540    0.06150    0.95150    1.000
    N27      N        0.59830    0.33770    0.94460    1.000
    N28      N        0.74840    0.92780    0.74950    1.000
    N29      N        0.53330    0.08230    0.60677    1.000
    N30      N        0.44380    0.35040    0.77360    1.000
    N31      N        0.65460    0.56150    0.04850    1.000
    N32      N        0.90170    0.83770    0.05540    1.000
    N33      N        0.75160    0.42780    0.25050    1.000
    N34      N        0.96670    0.58230    0.39323    1.000
    N35      N        0.05620    0.85040    0.22640    1.000
    N36      N        0.34540    0.93850    0.54850    1.000
    N37      N        0.09830    0.66230    0.55540    1.000
    N38      N        0.24840    0.07220    0.75050    1.000
    N39      N        0.03330    0.91770    0.89323    1.000
    N40      N        0.94380    0.64960    0.72640    1.000
