data_functionalizedCrystal
_audit_creation_method	'EQeq! by Chris Wilmer'
_symmetry_space_group_name_H-M	'P1'
_symmetry_Int_Tables_number	1
_symmetry_cell_setting	triclinic
loop_
_symmetry_equiv_pos_as_xyz
  x,y,z
_cell_length_a	13.5393
_cell_length_b	13.5393
_cell_length_c	15.0443
_cell_angle_alpha	90
_cell_angle_beta	90
_cell_angle_gamma	120
loop_
_atom_site_label
_atom_site_type_symbol
_atom_site_fract_x
_atom_site_fract_y
_atom_site_fract_z
_atom_site_charge
Mof_Zn	Zn	0.0888	0.63793	0.079	1.225
Mof_P 	P 	0.1285	0.44093	0.05675	0.547
Mof_O 	O 	0.1862	0.5665	0.0871	-0.608
Mof_O 	O 	0.1942	0.7823	0.027	-0.453
Mof_O 	O 	0.0336	0.6416	0.199	-0.47
Mof_O 	O 	0.9453	0.5735	0.0238	-0.439
Mof_Zn	Zn	0.75547	0.97126	0.41233	1.24
Mof_P 	P 	0.79517	0.77426	0.39008	0.547
Mof_O 	O 	0.85287	0.89983	0.42043	-0.579
Mof_O 	O 	0.86087	0.11563	0.36033	-0.461
Mof_O 	O 	0.70027	0.97493	0.53233	-0.444
Mof_O 	O 	0.61197	0.90683	0.35713	-0.458
Mof_Zn	Zn	0.42213	0.3046	0.74567	1.231
Mof_P 	P 	0.46183	0.1076	0.72342	0.549
Mof_O 	O 	0.51953	0.23317	0.75377	-0.606
Mof_O 	O 	0.52753	0.44897	0.69367	-0.445
Mof_O 	O 	0.36693	0.30827	0.86567	-0.46
Mof_O 	O 	0.27863	0.24017	0.69047	-0.474
Mof_Zn	Zn	0.36207	0.45087	0.079	1.231
Mof_P 	P 	0.55907	0.68757	0.05675	0.548
Mof_O 	O 	0.4335	0.6197	0.0871	-0.606
Mof_O 	O 	0.2177	0.4119	0.027	-0.452
Mof_O 	O 	0.3584	0.392	0.199	-0.458
Mof_O 	O 	0.4265	0.3718	0.0238	-0.47
Mof_Zn	Zn	0.02874	0.7842	0.41233	1.225
Mof_P 	P 	0.22574	0.0209	0.39008	0.495
Mof_O 	O 	0.10017	0.95303	0.42043	-0.576
Mof_O 	O 	0.88437	0.74523	0.36033	-0.423
Mof_O 	O 	0.02507	0.72533	0.53233	-0.461
Mof_O 	O 	0.09317	0.70513	0.35713	-0.474
Mof_Zn	Zn	0.6954	0.11754	0.74567	1.231
Mof_P 	P 	0.8924	0.35424	0.72342	0.549
Mof_O 	O 	0.76683	0.28637	0.75377	-0.605
Mof_O 	O 	0.55103	0.07857	0.69367	-0.456
Mof_O 	O 	0.69173	0.05867	0.86567	-0.464
Mof_O 	O 	0.75983	0.03847	0.69047	-0.497
Mof_Zn	Zn	0.54913	0.9112	0.079	1.238
Mof_P 	P 	0.31243	0.8715	0.05675	0.544
Mof_O 	O 	0.3803	0.8138	0.0871	-0.603
Mof_O 	O 	0.5881	0.8058	0.027	-0.435
Mof_O 	O 	0.608	0.9664	0.199	-0.437
Mof_O 	O 	0.6282	0.0547	0.0238	-0.48
Mof_Zn	Zn	0.2158	0.24453	0.41233	1.23
Mof_P 	P 	0.9791	0.20483	0.39008	0.609
Mof_O 	O 	0.04697	0.14713	0.42043	-0.648
Mof_O 	O 	0.25477	0.13913	0.36033	-0.449
Mof_O 	O 	0.27467	0.29973	0.53233	-0.456
Mof_O 	O 	0.29487	0.38803	0.35713	-0.471
Mof_Zn	Zn	0.88246	0.57787	0.74567	1.233
Mof_P 	P 	0.64576	0.53817	0.72342	0.549
Mof_O 	O 	0.71363	0.48047	0.75377	-0.605
Mof_O 	O 	0.92143	0.47247	0.69367	-0.435
Mof_O 	O 	0.94133	0.63307	0.86567	-0.44
Mof_O 	O 	0.96153	0.72137	0.69047	-0.434
Mof_Zn	Zn	0.9112	0.36207	0.921	1.237
Mof_P 	P 	0.8715	0.55907	0.94325	0.545
Mof_O 	O 	0.8138	0.4335	0.9129	-0.603
Mof_O 	O 	0.8058	0.2177	0.973	-0.442
Mof_O 	O 	0.9664	0.3584	0.801	-0.441
Mof_O 	O 	0.0547	0.4265	0.9762	-0.486
Mof_Zn	Zn	0.57787	0.6954	0.25433	1.232
Mof_P 	P 	0.53817	0.8924	0.27658	0.549
Mof_O 	O 	0.48047	0.76683	0.24623	-0.605
Mof_O 	O 	0.47247	0.55103	0.30633	-0.445
Mof_O 	O 	0.63307	0.69173	0.13433	-0.448
Mof_O 	O 	0.72137	0.75983	0.30953	-0.461
Mof_Zn	Zn	0.24453	0.02874	0.58767	1.223
Mof_P 	P 	0.20483	0.22574	0.60992	0.551
Mof_O 	O 	0.14713	0.10017	0.57957	-0.623
Mof_O 	O 	0.13913	0.88437	0.63967	-0.424
Mof_O 	O 	0.29973	0.02507	0.46767	-0.463
Mof_O 	O 	0.38803	0.09317	0.64287	-0.477
Mof_Zn	Zn	0.63793	0.54913	0.921	1.232
Mof_P 	P 	0.44093	0.31243	0.94325	0.549
Mof_O 	O 	0.5665	0.3803	0.9129	-0.606
Mof_O 	O 	0.7823	0.5881	0.973	-0.44
Mof_O 	O 	0.6416	0.608	0.801	-0.45
Mof_O 	O 	0.5735	0.6282	0.9762	-0.463
Mof_Zn	Zn	0.3046	0.88246	0.25433	1.233
Mof_P 	P 	0.1076	0.64576	0.27658	0.549
Mof_O 	O 	0.23317	0.71363	0.24623	-0.605
Mof_O 	O 	0.44897	0.92143	0.30633	-0.435
Mof_O 	O 	0.30827	0.94133	0.13433	-0.446
Mof_O 	O 	0.24017	0.96153	0.30953	-0.438
Mof_Zn	Zn	0.97126	0.2158	0.58767	1.239
Mof_P 	P 	0.77426	0.9791	0.60992	0.602
Mof_O 	O 	0.89983	0.04697	0.57957	-0.622
Mof_O 	O 	0.11563	0.25477	0.63967	-0.467
Mof_O 	O 	0.97493	0.27467	0.46767	-0.446
Mof_O 	O 	0.90683	0.29487	0.64287	-0.461
Mof_Zn	Zn	0.45087	0.0888	0.921	1.223
Mof_P 	P 	0.68757	0.1285	0.94325	0.544
Mof_O 	O 	0.6197	0.1862	0.9129	-0.608
Mof_O 	O 	0.4119	0.1942	0.973	-0.458
Mof_O 	O 	0.392	0.0336	0.801	-0.474
Mof_O 	O 	0.3718	0.9453	0.9762	-0.44
Mof_Zn	Zn	0.11754	0.42213	0.25433	1.23
Mof_P 	P 	0.35424	0.46183	0.27658	0.549
Mof_O 	O 	0.28637	0.51953	0.24623	-0.606
Mof_O 	O 	0.07857	0.52753	0.30633	-0.456
Mof_O 	O 	0.05867	0.36693	0.13433	-0.469
Mof_O 	O 	0.03847	0.27863	0.30953	-0.506
Mof_Zn	Zn	0.7842	0.75547	0.58767	1.233
Mof_P 	P 	0.0209	0.79517	0.60992	0.498
Mof_O 	O 	0.95303	0.85287	0.57957	-0.557
Mof_O 	O 	0.74523	0.86087	0.63967	-0.441
Mof_O 	O 	0.72533	0.70027	0.46767	-0.451
Mof_O 	O 	0.70513	0.61197	0.64287	-0.464
Mof_Co	Co	0.33333	0.66667	0.16667	1.152
Mof_Co	Co	5.28476e-33	0	0.5	1.116
Mof_Co	Co	0.66667	0.33333	0.83333	1.152
_end
