data_functionalizedCrystal
_audit_creation_method	'EQeq! by Chris Wilmer'
_symmetry_space_group_name_H-M	'P1'
_symmetry_Int_Tables_number	1
_symmetry_cell_setting	triclinic
loop_
_symmetry_equiv_pos_as_xyz
  x,y,z
_cell_length_a	18.587
_cell_length_b	20.07
_cell_length_c	8.7957
_cell_angle_alpha	90
_cell_angle_beta	100.611
_cell_angle_gamma	90
loop_
_atom_site_label
_atom_site_type_symbol
_atom_site_fract_x
_atom_site_fract_y
_atom_site_fract_z
_atom_site_charge
Mof_N 	N 	0.4981	0.83187	0.5039	-0.292
Mof_N 	N 	0.41156	0.89951	0.7156	-0.263
Mof_N 	N 	0.08095	0.2455	0.7734	-0.282
Mof_C 	C 	0.4985	0.8473	0.3819	0.179
Mof_C 	C 	0.4175	0.9577	0.6461	0.114
Mof_H 	H 	0.4595	0.9653	0.6051	-0.024
Mof_C 	C 	0.3655	0.0076	0.631	-0.203
Mof_H 	H 	0.3737	0.048	0.585	0.101
Mof_C 	C 	0.3025	0.9973	0.6837	0.136
Mof_C 	C 	0.2944	0.9357	0.7525	-0.205
Mof_H 	H 	0.2514	0.9257	0.7875	0.088
Mof_C 	C 	0.35	0.8903	0.7681	0.112
Mof_H 	H 	0.3442	0.8505	0.8186	-0.031
Mof_C 	C 	0.2432	0.051	0.6658	-0.141
Mof_H 	H 	0.2504	0.0812	0.5839	0.062
Mof_H 	H 	0.1959	0.0298	0.6341	0.057
Mof_C 	C 	0.2418	0.0891	0.8034	-0.191
Mof_H 	H 	0.2895	0.1096	0.8349	0.084
Mof_H 	H 	0.2349	0.0585	0.8848	0.081
Mof_C 	C 	0.0812	0.2039	0.6575	0.116
Mof_H 	H 	0.0461	0.2096	0.5685	-0.054
Mof_C 	C 	0.1307	0.1525	0.661	-0.218
Mof_H 	H 	0.1284	0.1242	0.5763	0.091
Mof_C 	C 	0.1842	0.1432	0.7927	0.158
Mof_C 	C 	0.1828	0.1847	0.9141	-0.225
Mof_H 	H 	0.2166	0.1792	0.0055	0.102
Mof_C 	C 	0.1312	0.2351	0.9019	0.113
Mof_H 	H 	0.1313	0.2629	0.9864	-0.035
Mof_N 	N 	0.9981	0.33187	0.5039	-0.286
Mof_N 	N 	0.91156	0.39951	0.7156	-0.249
Mof_N 	N 	0.58095	0.7455	0.7734	-0.271
Mof_C 	C 	0.9985	0.3473	0.3819	0.26
Mof_C 	C 	0.9175	0.4577	0.6461	0.12
Mof_H 	H 	0.9595	0.4653	0.6051	-0.003
Mof_C 	C 	0.8655	0.5076	0.631	-0.202
Mof_H 	H 	0.8737	0.548	0.585	0.111
Mof_C 	C 	0.8025	0.4973	0.6837	0.142
Mof_C 	C 	0.7944	0.4357	0.7525	-0.207
Mof_H 	H 	0.7514	0.4257	0.7875	0.092
Mof_C 	C 	0.85	0.3903	0.7681	0.117
Mof_H 	H 	0.8442	0.3505	0.8186	-0.026
Mof_C 	C 	0.7432	0.551	0.6658	-0.148
Mof_H 	H 	0.7504	0.5812	0.5839	0.067
Mof_H 	H 	0.6959	0.5298	0.6341	0.063
Mof_C 	C 	0.7418	0.5891	0.8034	-0.188
Mof_H 	H 	0.7895	0.6096	0.8349	0.085
Mof_H 	H 	0.7349	0.5585	0.8848	0.082
Mof_C 	C 	0.5812	0.7039	0.6575	0.121
Mof_H 	H 	0.5461	0.7096	0.5685	-0.034
Mof_C 	C 	0.6307	0.6525	0.661	-0.213
Mof_H 	H 	0.6284	0.6242	0.5763	0.097
Mof_C 	C 	0.6842	0.6432	0.7927	0.162
Mof_C 	C 	0.6828	0.6847	0.9141	-0.227
Mof_H 	H 	0.7166	0.6792	0.0055	0.105
Mof_C 	C 	0.6312	0.7351	0.9019	0.12
Mof_H 	H 	0.6313	0.7629	0.9864	-0.033
Mof_N 	N 	0.5019	0.83187	0.9961	-0.293
Mof_N 	N 	0.58844	0.89951	0.7844	-0.264
Mof_N 	N 	0.91905	0.2455	0.7266	-0.255
Mof_C 	C 	0.5015	0.8473	0.1181	0.182
Mof_C 	C 	0.5825	0.9577	0.8539	0.117
Mof_H 	H 	0.5405	0.9653	0.8949	-0.025
Mof_C 	C 	0.6345	0.0076	0.869	-0.209
Mof_H 	H 	0.6263	0.048	0.915	0.103
Mof_C 	C 	0.6975	0.9973	0.8163	0.146
Mof_C 	C 	0.7056	0.9357	0.7475	-0.212
Mof_H 	H 	0.7486	0.9257	0.7125	0.096
Mof_C 	C 	0.65	0.8903	0.7319	0.116
Mof_H 	H 	0.6558	0.8505	0.6814	-0.031
Mof_C 	C 	0.7568	0.051	0.8342	-0.157
Mof_H 	H 	0.7496	0.0812	0.9161	0.069
Mof_H 	H 	0.8041	0.0298	0.8659	0.071
Mof_C 	C 	0.7582	0.0891	0.6966	-0.179
Mof_H 	H 	0.7105	0.1096	0.6651	0.081
Mof_H 	H 	0.7651	0.0585	0.6152	0.082
Mof_C 	C 	0.9188	0.2039	0.8425	0.123
Mof_H 	H 	0.9539	0.2096	0.9315	-0.014
Mof_C 	C 	0.8693	0.1525	0.839	-0.203
Mof_H 	H 	0.8716	0.1242	0.9237	0.101
Mof_C 	C 	0.8158	0.1432	0.7073	0.157
Mof_C 	C 	0.8172	0.1847	0.5859	-0.214
Mof_H 	H 	0.7834	0.1792	0.4945	0.101
Mof_C 	C 	0.8688	0.2351	0.5981	0.119
Mof_H 	H 	0.8687	0.2629	0.5136	-0.025
Mof_N 	N 	0.0019	0.33187	0.9961	-0.308
Mof_N 	N 	0.08844	0.39951	0.7844	-0.273
Mof_N 	N 	0.41905	0.7455	0.7266	-0.27
Mof_C 	C 	0.0015	0.3473	0.1181	0.157
Mof_C 	C 	0.0825	0.4577	0.8539	0.114
Mof_H 	H 	0.0405	0.4653	0.8949	-0.042
Mof_C 	C 	0.1345	0.5076	0.869	-0.211
Mof_H 	H 	0.1263	0.548	0.915	0.096
Mof_C 	C 	0.1975	0.4973	0.8163	0.143
Mof_C 	C 	0.2056	0.4357	0.7475	-0.211
Mof_H 	H 	0.2486	0.4257	0.7125	0.093
Mof_C 	C 	0.15	0.3903	0.7319	0.113
Mof_H 	H 	0.1558	0.3505	0.6814	-0.036
Mof_C 	C 	0.2568	0.551	0.8342	-0.152
Mof_H 	H 	0.2496	0.5812	0.9161	0.065
Mof_H 	H 	0.3041	0.5298	0.8659	0.065
Mof_C 	C 	0.2582	0.5891	0.6966	-0.182
Mof_H 	H 	0.2105	0.6096	0.6651	0.08
Mof_H 	H 	0.2651	0.5585	0.6152	0.081
Mof_C 	C 	0.4188	0.7039	0.8425	0.118
Mof_H 	H 	0.4539	0.7096	0.9315	-0.034
Mof_C 	C 	0.3693	0.6525	0.839	-0.21
Mof_H 	H 	0.3716	0.6242	0.9237	0.095
Mof_C 	C 	0.3158	0.6432	0.7073	0.155
Mof_C 	C 	0.3172	0.6847	0.5859	-0.218
Mof_H 	H 	0.2834	0.6792	0.4945	0.1
Mof_C 	C 	0.3688	0.7351	0.5981	0.115
Mof_H 	H 	0.3687	0.7629	0.5136	-0.03
Mof_Zn	Zn	0.5	0.82406	0.75	1.181
Mof_Zn	Zn	8.8128e-18	0.32406	0.75	1.161
Mof_N 	N 	0.5	0.8762	0.25	-0.197
Mof_N 	N 	5.2525e-34	0.3762	0.25	-0.245
Mof_N 	N 	0.5019	0.16813	0.4961	-0.291
Mof_N 	N 	0.58844	0.10049	0.2844	-0.264
Mof_N 	N 	0.91905	0.7545	0.2266	-0.253
Mof_C 	C 	0.5015	0.1527	0.6181	0.179
Mof_C 	C 	0.5825	0.0423	0.3539	0.118
Mof_H 	H 	0.5405	0.0347	0.3949	-0.025
Mof_C 	C 	0.6345	0.9924	0.369	-0.211
Mof_H 	H 	0.6263	0.952	0.415	0.104
Mof_C 	C 	0.6975	0.0027	0.3163	0.149
Mof_C 	C 	0.7056	0.0643	0.2475	-0.213
Mof_H 	H 	0.7486	0.0743	0.2125	0.098
Mof_C 	C 	0.65	0.1097	0.2319	0.118
Mof_H 	H 	0.6558	0.1495	0.1814	-0.031
Mof_C 	C 	0.7568	0.949	0.3342	-0.161
Mof_H 	H 	0.7496	0.9188	0.4161	0.071
Mof_H 	H 	0.8041	0.9702	0.3659	0.073
Mof_C 	C 	0.7582	0.9109	0.1966	-0.174
Mof_H 	H 	0.7105	0.8904	0.1651	0.08
Mof_H 	H 	0.7651	0.9415	0.1152	0.082
Mof_C 	C 	0.9188	0.7961	0.3425	0.121
Mof_H 	H 	0.9539	0.7904	0.4315	-0.012
Mof_C 	C 	0.8693	0.8475	0.339	-0.2
Mof_H 	H 	0.8716	0.8758	0.4237	0.1
Mof_C 	C 	0.8158	0.8568	0.2073	0.152
Mof_C 	C 	0.8172	0.8153	0.0859	-0.203
Mof_H 	H 	0.7834	0.8208	0.9945	0.095
Mof_C 	C 	0.8688	0.7649	0.0981	0.114
Mof_H 	H 	0.8687	0.7371	0.0136	-0.023
Mof_N 	N 	0.0019	0.66813	0.4961	-0.308
Mof_N 	N 	0.08844	0.60049	0.2844	-0.273
Mof_N 	N 	0.41905	0.2545	0.2266	-0.27
Mof_C 	C 	0.0015	0.6527	0.6181	0.155
Mof_C 	C 	0.0825	0.5423	0.3539	0.114
Mof_H 	H 	0.0405	0.5347	0.3949	-0.043
Mof_C 	C 	0.1345	0.4924	0.369	-0.211
Mof_H 	H 	0.1263	0.452	0.415	0.096
Mof_C 	C 	0.1975	0.5027	0.3163	0.144
Mof_C 	C 	0.2056	0.5643	0.2475	-0.211
Mof_H 	H 	0.2486	0.5743	0.2125	0.094
Mof_C 	C 	0.15	0.6097	0.2319	0.113
Mof_H 	H 	0.1558	0.6495	0.1814	-0.035
Mof_C 	C 	0.2568	0.449	0.3342	-0.154
Mof_H 	H 	0.2496	0.4188	0.4161	0.066
Mof_H 	H 	0.3041	0.4702	0.3659	0.065
Mof_C 	C 	0.2582	0.4109	0.1966	-0.18
Mof_H 	H 	0.2105	0.3904	0.1651	0.08
Mof_H 	H 	0.2651	0.4415	0.1152	0.081
Mof_C 	C 	0.4188	0.2961	0.3425	0.118
Mof_H 	H 	0.4539	0.2904	0.4315	-0.033
Mof_C 	C 	0.3693	0.3475	0.339	-0.208
Mof_H 	H 	0.3716	0.3758	0.4237	0.095
Mof_C 	C 	0.3158	0.3568	0.2073	0.154
Mof_C 	C 	0.3172	0.3153	0.0859	-0.214
Mof_H 	H 	0.2834	0.3208	0.9945	0.098
Mof_C 	C 	0.3688	0.2649	0.0981	0.113
Mof_H 	H 	0.3687	0.2371	0.0136	-0.029
Mof_N 	N 	0.4981	0.16813	0.0039	-0.29
Mof_N 	N 	0.41156	0.10049	0.2156	-0.262
Mof_N 	N 	0.08095	0.7545	0.2734	-0.28
Mof_C 	C 	0.4985	0.1527	0.8819	0.177
Mof_C 	C 	0.4175	0.0423	0.1461	0.113
Mof_H 	H 	0.4595	0.0347	0.1051	-0.023
Mof_C 	C 	0.3655	0.9924	0.131	-0.202
Mof_H 	H 	0.3737	0.952	0.085	0.101
Mof_C 	C 	0.3025	0.0027	0.1837	0.136
Mof_C 	C 	0.2944	0.0643	0.2525	-0.205
Mof_H 	H 	0.2514	0.0743	0.2875	0.089
Mof_C 	C 	0.35	0.1097	0.2681	0.112
Mof_H 	H 	0.3442	0.1495	0.3186	-0.031
Mof_C 	C 	0.2432	0.949	0.1658	-0.142
Mof_H 	H 	0.2504	0.9188	0.0839	0.063
Mof_H 	H 	0.1959	0.9702	0.1341	0.057
Mof_C 	C 	0.2418	0.9109	0.3034	-0.19
Mof_H 	H 	0.2895	0.8904	0.3349	0.085
Mof_H 	H 	0.2349	0.9415	0.3848	0.081
Mof_C 	C 	0.0812	0.7961	0.1575	0.115
Mof_H 	H 	0.0461	0.7904	0.0685	-0.053
Mof_C 	C 	0.1307	0.8475	0.161	-0.217
Mof_H 	H 	0.1284	0.8758	0.0763	0.091
Mof_C 	C 	0.1842	0.8568	0.2927	0.157
Mof_C 	C 	0.1828	0.8153	0.4141	-0.222
Mof_H 	H 	0.2166	0.8208	0.5055	0.1
Mof_C 	C 	0.1312	0.7649	0.4019	0.111
Mof_H 	H 	0.1313	0.7371	0.4864	-0.034
Mof_N 	N 	0.9981	0.66813	0.0039	-0.282
Mof_N 	N 	0.91156	0.60049	0.2156	-0.249
Mof_N 	N 	0.58095	0.2545	0.2734	-0.27
Mof_C 	C 	0.9985	0.6527	0.8819	0.253
Mof_C 	C 	0.9175	0.5423	0.1461	0.121
Mof_H 	H 	0.9595	0.5347	0.1051	-0.003
Mof_C 	C 	0.8655	0.4924	0.131	-0.203
Mof_H 	H 	0.8737	0.452	0.085	0.112
Mof_C 	C 	0.8025	0.5027	0.1837	0.144
Mof_C 	C 	0.7944	0.5643	0.2525	-0.208
Mof_H 	H 	0.7514	0.5743	0.2875	0.093
Mof_C 	C 	0.85	0.6097	0.2681	0.118
Mof_H 	H 	0.8442	0.6495	0.3186	-0.025
Mof_C 	C 	0.7432	0.449	0.1658	-0.15
Mof_H 	H 	0.7504	0.4188	0.0839	0.068
Mof_H 	H 	0.6959	0.4702	0.1341	0.065
Mof_C 	C 	0.7418	0.4109	0.3034	-0.185
Mof_H 	H 	0.7895	0.3904	0.3349	0.085
Mof_H 	H 	0.7349	0.4415	0.3848	0.082
Mof_C 	C 	0.5812	0.2961	0.1575	0.12
Mof_H 	H 	0.5461	0.2904	0.0685	-0.033
Mof_C 	C 	0.6307	0.3475	0.161	-0.21
Mof_H 	H 	0.6284	0.3758	0.0763	0.097
Mof_C 	C 	0.6842	0.3568	0.2927	0.158
Mof_C 	C 	0.6828	0.3153	0.4141	-0.218
Mof_H 	H 	0.7166	0.3208	0.5055	0.101
Mof_C 	C 	0.6312	0.2649	0.4019	0.116
Mof_H 	H 	0.6313	0.2371	0.4864	-0.031
Mof_Zn	Zn	0.5	0.17594	0.25	1.181
Mof_Zn	Zn	4.4064e-18	0.67594	0.25	1.161
Mof_N 	N 	0.5	0.1238	0.75	-0.196
Mof_N 	N 	-8.8128e-18	0.6238	0.75	-0.242
_end
