data_functionalizedCrystal
_audit_creation_method	'EQeq! by Chris Wilmer'
_symmetry_space_group_name_H-M	'P1'
_symmetry_Int_Tables_number	1
_symmetry_cell_setting	triclinic
loop_
_symmetry_equiv_pos_as_xyz
  x,y,z
_cell_length_a	11.343
_cell_length_b	13.748
_cell_length_c	24.652
_cell_angle_alpha	92.98
_cell_angle_beta	90
_cell_angle_gamma	90
loop_
_atom_site_label
_atom_site_type_symbol
_atom_site_fract_x
_atom_site_fract_y
_atom_site_fract_z
_atom_site_charge
Mof_Mn	Mn	0.75131	0.50368	0.71378	0.926
Mof_Mn	Mn	0.90233	0.49675	0.89122	0.918
Mof_Mn	Mn	0.25131	0.49632	0.78622	0.927
Mof_Mn	Mn	0.40233	0.50325	0.60878	0.919
Mof_Mn	Mn	0.24869	0.49632	0.28622	0.927
Mof_Mn	Mn	0.09767	0.50325	0.10878	0.919
Mof_Mn	Mn	0.74869	0.50368	0.21378	0.927
Mof_Mn	Mn	0.59767	0.49675	0.39122	0.919
Mof_H 	H 	0.7895	0.4989	0.5933	0.332
Mof_H 	H 	0.6864	0.5103	0.6222	0.324
Mof_H 	H 	0.6465	0.4953	0.8678	0.352
Mof_H 	H 	0.6978	0.4899	0.918	0.311
Mof_H 	H 	0.6346	0.6826	0.7828	-0.022
Mof_H 	H 	0.6272	0.845	0.7915	0.136
Mof_H 	H 	0.8803	0.8549	0.6829	0.14
Mof_H 	H 	0.8777	0.688	0.6748	-0.011
Mof_H 	H 	0.6921	0.004	0.7678	0.083
Mof_H 	H 	0.837	0.0054	0.682	0.084
Mof_H 	H 	0.6699	0.1574	0.7769	0.126
Mof_H 	H 	0.6564	0.3227	0.7754	-0.012
Mof_H 	H 	0.8638	0.3255	0.6517	-0.014
Mof_H 	H 	0.8855	0.1615	0.6498	0.136
Mof_H 	H 	0.7511	0.308	0.8926	-0.013
Mof_H 	H 	0.7624	0.138	0.8809	0.128
Mof_H 	H 	0.0992	0.1621	0.8591	0.125
Mof_H 	H 	0.0832	0.3256	0.8672	-0.029
Mof_H 	H 	0.022	0.996	0.8549	0.06
Mof_H 	H 	0.8001	0.9911	0.8847	0.088
Mof_H 	H 	0.7294	0.838	0.9097	0.147
Mof_H 	H 	0.7436	0.6767	0.9148	-0.032
Mof_H 	H 	0.0599	0.6758	0.8588	-0.027
Mof_H 	H 	0.0504	0.8375	0.8467	0.122
Mof_H 	H 	0.2895	0.5011	0.9067	0.332
Mof_H 	H 	0.1864	0.4897	0.8778	0.324
Mof_H 	H 	0.1465	0.5047	0.6322	0.352
Mof_H 	H 	0.1978	0.5101	0.582	0.311
Mof_H 	H 	0.1346	0.3174	0.7172	-0.022
Mof_H 	H 	0.1272	0.155	0.7085	0.136
Mof_H 	H 	0.3803	0.1451	0.8171	0.14
Mof_H 	H 	0.3777	0.312	0.8252	-0.011
Mof_H 	H 	0.1921	0.996	0.7322	0.082
Mof_H 	H 	0.337	0.9946	0.818	0.085
Mof_H 	H 	0.1699	0.8426	0.7231	0.127
Mof_H 	H 	0.1564	0.6773	0.7246	-0.012
Mof_H 	H 	0.3638	0.6745	0.8483	-0.014
Mof_H 	H 	0.3855	0.8385	0.8502	0.137
Mof_H 	H 	0.2511	0.692	0.6074	-0.013
Mof_H 	H 	0.2624	0.862	0.6191	0.128
Mof_H 	H 	0.5992	0.8379	0.6409	0.125
Mof_H 	H 	0.5832	0.6744	0.6328	-0.029
Mof_H 	H 	0.522	0.004	0.6451	0.059
Mof_H 	H 	0.3001	0.0089	0.6153	0.09
Mof_H 	H 	0.2294	0.162	0.5903	0.148
Mof_H 	H 	0.2436	0.3233	0.5852	-0.032
Mof_H 	H 	0.5599	0.3242	0.6412	-0.027
Mof_H 	H 	0.5504	0.1625	0.6533	0.125
Mof_H 	H 	0.2105	0.5011	0.4067	0.332
Mof_H 	H 	0.3136	0.4897	0.3778	0.324
Mof_H 	H 	0.3535	0.5047	0.1322	0.352
Mof_H 	H 	0.3022	0.5101	0.082	0.311
Mof_H 	H 	0.3654	0.3174	0.2172	-0.022
Mof_H 	H 	0.3728	0.155	0.2085	0.136
Mof_H 	H 	0.1197	0.1451	0.3171	0.14
Mof_H 	H 	0.1223	0.312	0.3252	-0.011
Mof_H 	H 	0.3079	0.996	0.2322	0.083
Mof_H 	H 	0.163	0.9946	0.318	0.084
Mof_H 	H 	0.3301	0.8426	0.2231	0.126
Mof_H 	H 	0.3436	0.6773	0.2246	-0.012
Mof_H 	H 	0.1362	0.6745	0.3483	-0.014
Mof_H 	H 	0.1145	0.8385	0.3502	0.136
Mof_H 	H 	0.2489	0.692	0.1074	-0.013
Mof_H 	H 	0.2376	0.862	0.1191	0.128
Mof_H 	H 	0.9008	0.8379	0.1409	0.125
Mof_H 	H 	0.9168	0.6744	0.1328	-0.029
Mof_H 	H 	0.978	0.004	0.1451	0.06
Mof_H 	H 	0.1999	0.0089	0.1153	0.088
Mof_H 	H 	0.2706	0.162	0.0903	0.147
Mof_H 	H 	0.2564	0.3233	0.0852	-0.032
Mof_H 	H 	0.9401	0.3242	0.1412	-0.027
Mof_H 	H 	0.9496	0.1625	0.1533	0.122
Mof_H 	H 	0.7105	0.4989	0.0933	0.332
Mof_H 	H 	0.8136	0.5103	0.1222	0.324
Mof_H 	H 	0.8535	0.4953	0.3678	0.352
Mof_H 	H 	0.8022	0.4899	0.418	0.311
Mof_H 	H 	0.8654	0.6826	0.2828	-0.022
Mof_H 	H 	0.8728	0.845	0.2915	0.136
Mof_H 	H 	0.6197	0.8549	0.1829	0.14
Mof_H 	H 	0.6223	0.688	0.1748	-0.011
Mof_H 	H 	0.8079	0.004	0.2678	0.082
Mof_H 	H 	0.663	0.0054	0.182	0.085
Mof_H 	H 	0.8301	0.1574	0.2769	0.127
Mof_H 	H 	0.8436	0.3227	0.2754	-0.012
Mof_H 	H 	0.6362	0.3255	0.1517	-0.014
Mof_H 	H 	0.6145	0.1615	0.1498	0.137
Mof_H 	H 	0.7489	0.308	0.3926	-0.013
Mof_H 	H 	0.7376	0.138	0.3809	0.128
Mof_H 	H 	0.4008	0.1621	0.3591	0.125
Mof_H 	H 	0.4168	0.3256	0.3672	-0.029
Mof_H 	H 	0.478	0.996	0.3549	0.059
Mof_H 	H 	0.6999	0.9911	0.3847	0.09
Mof_H 	H 	0.7706	0.838	0.4097	0.148
Mof_H 	H 	0.7564	0.6767	0.4148	-0.032
Mof_H 	H 	0.4401	0.6758	0.3588	-0.027
Mof_H 	H 	0.4496	0.8375	0.3467	0.125
Mof_C 	C 	0.9767	0.4973	0.78425	0.23
Mof_C 	C 	0.0178	0.5009	0.72538	0.237
Mof_C 	C 	0.9374	0.4993	0.0117	0.253
Mof_C 	C 	0.684	0.7177	0.76099	0.172
Mof_C 	C 	0.679	0.8152	0.76653	-0.264
Mof_C 	C 	0.7486	0.8704	0.73605	0.197
Mof_C 	C 	0.8262	0.8208	0.7029	-0.249
Mof_C 	C 	0.8253	0.7198	0.6987	0.153
Mof_C 	C 	0.739	0.9764	0.7401	-0.115
Mof_C 	C 	0.789	0.0332	0.7092	-0.1
Mof_C 	C 	0.7785	0.1403	0.71225	0.176
Mof_C 	C 	0.7101	0.1905	0.75062	-0.235
Mof_C 	C 	0.7025	0.2895	0.74938	0.146
Mof_C 	C 	0.8236	0.291	0.67739	0.155
Mof_C 	C 	0.8369	0.1925	0.6757	-0.247
Mof_C 	C 	0.8238	0.279	0.8854	0.145
Mof_C 	C 	0.8305	0.1753	0.8789	-0.23
Mof_C 	C 	0.9344	0.1318	0.86993	0.184
Mof_C 	C 	0.0253	0.1895	0.8658	-0.252
Mof_C 	C 	0.0155	0.2884	0.8712	0.17
Mof_C 	C 	0.9493	0.0211	0.86611	-0.077
Mof_C 	C 	0.8741	0.9654	0.8765	-0.119
Mof_C 	C 	0.8874	0.8582	0.87758	0.202
Mof_C 	C 	0.798	0.8064	0.898	-0.275
Mof_C 	C 	0.8078	0.7099	0.9015	0.19
Mof_C 	C 	0.9909	0.7092	0.86823	0.165
Mof_C 	C 	0.9867	0.806	0.86176	-0.247
Mof_C 	C 	0.4767	0.5027	0.71575	0.231
Mof_C 	C 	0.5178	0.4991	0.77462	0.237
Mof_C 	C 	0.4374	0.5007	0.4883	0.253
Mof_C 	C 	0.184	0.2823	0.73901	0.171
Mof_C 	C 	0.179	0.1848	0.73347	-0.262
Mof_C 	C 	0.2486	0.1296	0.76395	0.195
Mof_C 	C 	0.3262	0.1792	0.7971	-0.248
Mof_C 	C 	0.3253	0.2802	0.8013	0.153
Mof_C 	C 	0.239	0.0236	0.7599	-0.111
Mof_C 	C 	0.289	0.9668	0.7908	-0.102
Mof_C 	C 	0.2785	0.8597	0.78775	0.178
Mof_C 	C 	0.2101	0.8095	0.74938	-0.236
Mof_C 	C 	0.2025	0.7105	0.75062	0.147
Mof_C 	C 	0.3236	0.709	0.82261	0.155
Mof_C 	C 	0.3369	0.8075	0.8243	-0.248
Mof_C 	C 	0.3238	0.721	0.6146	0.145
Mof_C 	C 	0.3305	0.8247	0.6211	-0.229
Mof_C 	C 	0.4344	0.8682	0.63007	0.183
Mof_C 	C 	0.5253	0.8105	0.6342	-0.253
Mof_C 	C 	0.5155	0.7116	0.6288	0.169
Mof_C 	C 	0.4493	0.9789	0.63389	-0.072
Mof_C 	C 	0.3741	0.0346	0.6235	-0.126
Mof_C 	C 	0.3874	0.1418	0.62242	0.206
Mof_C 	C 	0.298	0.1936	0.602	-0.278
Mof_C 	C 	0.3078	0.2901	0.5985	0.192
Mof_C 	C 	0.4909	0.2908	0.63177	0.166
Mof_C 	C 	0.4867	0.194	0.63824	-0.252
Mof_C 	C 	0.0233	0.5027	0.21575	0.23
Mof_C 	C 	0.9822	0.4991	0.27462	0.237
Mof_C 	C 	0.0626	0.5007	0.9883	0.253
Mof_C 	C 	0.316	0.2823	0.23901	0.172
Mof_C 	C 	0.321	0.1848	0.23347	-0.264
Mof_C 	C 	0.2514	0.1296	0.26395	0.197
Mof_C 	C 	0.1738	0.1792	0.2971	-0.249
Mof_C 	C 	0.1747	0.2802	0.3013	0.153
Mof_C 	C 	0.261	0.0236	0.2599	-0.115
Mof_C 	C 	0.211	0.9668	0.2908	-0.1
Mof_C 	C 	0.2215	0.8597	0.28775	0.176
Mof_C 	C 	0.2899	0.8095	0.24938	-0.235
Mof_C 	C 	0.2975	0.7105	0.25062	0.146
Mof_C 	C 	0.1764	0.709	0.32261	0.155
Mof_C 	C 	0.1631	0.8075	0.3243	-0.247
Mof_C 	C 	0.1762	0.721	0.1146	0.145
Mof_C 	C 	0.1695	0.8247	0.1211	-0.23
Mof_C 	C 	0.0656	0.8682	0.13007	0.184
Mof_C 	C 	0.9747	0.8105	0.1342	-0.252
Mof_C 	C 	0.9845	0.7116	0.1288	0.17
Mof_C 	C 	0.0507	0.9789	0.13389	-0.077
Mof_C 	C 	0.1259	0.0346	0.1235	-0.119
Mof_C 	C 	0.1126	0.1418	0.12242	0.202
Mof_C 	C 	0.202	0.1936	0.102	-0.275
Mof_C 	C 	0.1922	0.2901	0.0985	0.19
Mof_C 	C 	0.0091	0.2908	0.13177	0.165
Mof_C 	C 	0.0133	0.194	0.13824	-0.247
Mof_C 	C 	0.5233	0.4973	0.28425	0.231
Mof_C 	C 	0.4822	0.5009	0.22538	0.237
Mof_C 	C 	0.5626	0.4993	0.5117	0.253
Mof_C 	C 	0.816	0.7177	0.26099	0.171
Mof_C 	C 	0.821	0.8152	0.26653	-0.262
Mof_C 	C 	0.7514	0.8704	0.23605	0.195
Mof_C 	C 	0.6738	0.8208	0.2029	-0.248
Mof_C 	C 	0.6747	0.7198	0.1987	0.153
Mof_C 	C 	0.761	0.9764	0.2401	-0.111
Mof_C 	C 	0.711	0.0332	0.2092	-0.102
Mof_C 	C 	0.7215	0.1403	0.21225	0.178
Mof_C 	C 	0.7899	0.1905	0.25062	-0.236
Mof_C 	C 	0.7975	0.2895	0.24938	0.147
Mof_C 	C 	0.6764	0.291	0.17739	0.155
Mof_C 	C 	0.6631	0.1925	0.1757	-0.248
Mof_C 	C 	0.6762	0.279	0.3854	0.145
Mof_C 	C 	0.6695	0.1753	0.3789	-0.229
Mof_C 	C 	0.5656	0.1318	0.36993	0.183
Mof_C 	C 	0.4747	0.1895	0.3658	-0.253
Mof_C 	C 	0.4845	0.2884	0.3712	0.169
Mof_C 	C 	0.5507	0.0211	0.36611	-0.072
Mof_C 	C 	0.6259	0.9654	0.3765	-0.126
Mof_C 	C 	0.6126	0.8582	0.37758	0.206
Mof_C 	C 	0.702	0.8064	0.398	-0.278
Mof_C 	C 	0.6922	0.7099	0.4015	0.192
Mof_C 	C 	0.5091	0.7092	0.36823	0.166
Mof_C 	C 	0.5133	0.806	0.36176	-0.252
Mof_N 	N 	0.7537	0.6676	0.72693	-0.221
Mof_N 	N 	0.7576	0.3405	0.71294	-0.217
Mof_N 	N 	0.9162	0.3339	0.88154	-0.222
Mof_N 	N 	0.901	0.6594	0.88744	-0.226
Mof_N 	N 	0.2537	0.3324	0.77307	-0.221
Mof_N 	N 	0.2576	0.6595	0.78706	-0.217
Mof_N 	N 	0.4162	0.6661	0.61846	-0.221
Mof_N 	N 	0.401	0.3406	0.61256	-0.227
Mof_N 	N 	0.2463	0.3324	0.27307	-0.221
Mof_N 	N 	0.2424	0.6595	0.28706	-0.217
Mof_N 	N 	0.0838	0.6661	0.11846	-0.222
Mof_N 	N 	0.099	0.3406	0.11256	-0.226
Mof_N 	N 	0.7463	0.6676	0.22693	-0.221
Mof_N 	N 	0.7424	0.3405	0.21294	-0.217
Mof_N 	N 	0.5838	0.3339	0.38154	-0.221
Mof_N 	N 	0.599	0.6594	0.38744	-0.227
Mof_O 	O 	0.76122	0.5054	0.62568	-0.715
Mof_O 	O 	0.713	0.492	0.88422	-0.731
Mof_O 	O 	0.8696	0.49713	0.79315	-0.34
Mof_O 	O 	0.053	0.49548	0.82014	-0.371
Mof_O 	O 	0.94077	0.50516	0.69027	-0.313
Mof_O 	O 	0.12642	0.49865	0.71792	-0.33
Mof_O 	O 	0.8546	0.49974	0.9798	-0.341
Mof_O 	O 	0.93219	0.49839	0.06217	-0.357
Mof_O 	O 	0.26122	0.4946	0.87432	-0.715
Mof_O 	O 	0.213	0.508	0.61578	-0.731
Mof_O 	O 	0.3696	0.50287	0.70685	-0.34
Mof_O 	O 	0.553	0.50452	0.67986	-0.372
Mof_O 	O 	0.44077	0.49484	0.80973	-0.313
Mof_O 	O 	0.62642	0.50135	0.78208	-0.33
Mof_O 	O 	0.3546	0.50026	0.5202	-0.341
Mof_O 	O 	0.43219	0.50161	0.43783	-0.357
Mof_O 	O 	0.23878	0.4946	0.37432	-0.715
Mof_O 	O 	0.287	0.508	0.11578	-0.731
Mof_O 	O 	0.1304	0.50287	0.20685	-0.34
Mof_O 	O 	0.947	0.50452	0.17986	-0.371
Mof_O 	O 	0.05923	0.49484	0.30973	-0.313
Mof_O 	O 	0.87358	0.50135	0.28208	-0.33
Mof_O 	O 	0.1454	0.50026	0.0202	-0.341
Mof_O 	O 	0.06781	0.50161	0.93783	-0.357
Mof_O 	O 	0.73878	0.5054	0.12568	-0.715
Mof_O 	O 	0.787	0.492	0.38422	-0.731
Mof_O 	O 	0.6304	0.49713	0.29315	-0.34
Mof_O 	O 	0.447	0.49548	0.32014	-0.372
Mof_O 	O 	0.55923	0.50516	0.19027	-0.313
Mof_O 	O 	0.37358	0.49865	0.21792	-0.33
Mof_O 	O 	0.6454	0.49974	0.4798	-0.341
Mof_O 	O 	0.56781	0.49839	0.56217	-0.357
Mof_N 	N 	0.0376	0.973	0.611	0.059
Mof_O 	O 	0.9475	0.9404	0.5909	-0.124
Mof_O 	O 	0.0712	0.9378	0.6523	-0.157
Mof_O 	O 	0.0566	0.0588	0.6065	-0.141
Mof_N 	N 	0.5376	0.027	0.889	0.061
Mof_O 	O 	0.4475	0.0596	0.9091	-0.125
Mof_O 	O 	0.5712	0.0622	0.8477	-0.157
Mof_O 	O 	0.5566	0.9412	0.8935	-0.142
Mof_N 	N 	0.9624	0.027	0.389	0.059
Mof_O 	O 	0.0525	0.0596	0.4091	-0.124
Mof_O 	O 	0.9288	0.0622	0.3477	-0.157
Mof_O 	O 	0.9434	0.9412	0.3935	-0.141
Mof_N 	N 	0.4624	0.973	0.111	0.061
Mof_O 	O 	0.5525	0.9404	0.0909	-0.125
Mof_O 	O 	0.4288	0.9378	0.1523	-0.157
Mof_O 	O 	0.4434	0.0588	0.1065	-0.142
_end
