data_functionalizedCrystal
_audit_creation_method	'EQeq! by Chris Wilmer'
_symmetry_space_group_name_H-M	'P1'
_symmetry_Int_Tables_number	1
_symmetry_cell_setting	triclinic
loop_
_symmetry_equiv_pos_as_xyz
  x,y,z
_cell_length_a	10.082
_cell_length_b	21.787
_cell_length_c	13.977
_cell_angle_alpha	91.59
_cell_angle_beta	90
_cell_angle_gamma	90
loop_
_atom_site_label
_atom_site_type_symbol
_atom_site_fract_x
_atom_site_fract_y
_atom_site_fract_z
_atom_site_charge
Mof_Tb	Tb	0.936	0.24034	0.23054	2.111
Mof_Tb	Tb	0.24922	0.74873	0.02738	2.301
Mof_Tb	Tb	0.436	0.75966	0.26946	2.111
Mof_Tb	Tb	0.74922	0.25127	0.47262	2.302
Mof_Tb	Tb	0.064	0.75966	0.76946	2.11
Mof_Tb	Tb	0.75078	0.25127	0.97262	2.3
Mof_Tb	Tb	0.564	0.24034	0.73054	2.11
Mof_Tb	Tb	0.25078	0.74873	0.52738	2.301
Mof_H 	H 	0.5989	0.5717	0.9045	0.061
Mof_H 	H 	0.8698	0.8714	0.0905	0.19
Mof_H 	H 	0.8007	0.8761	0.9904	0.194
Mof_H 	H 	0.5842	0.6161	0.1497	0.184
Mof_H 	H 	0.6503	0.634	0.0529	0.17
Mof_H 	H 	0.917	0.9722	0.1463	0.073
Mof_H 	H 	0.2117	0.5434	0.1904	0.061
Mof_H 	H 	0.0004	0.6586	0.2885	0.168
Mof_H 	H 	0.1399	0.629	0.3058	0.176
Mof_H 	H 	0.8346	0.5961	0.2083	0.049
Mof_H 	H 	0.9996	0.9308	0.8719	0.083
Mof_H 	H 	0.6424	0.9646	0.1363	0.086
Mof_H 	H 	0.3179	0.9225	0.0572	0.184
Mof_H 	H 	0.4649	0.9092	0.028	0.182
Mof_H 	H 	0.7021	0.0611	0.1901	0.056
Mof_H 	H 	0.3226	0.1144	0.18	0.046
Mof_H 	H 	0.2647	0.0165	0.126	0.085
Mof_H 	H 	0.7696	0.5053	0.1329	0.08
Mof_H 	H 	0.1468	0.4523	0.1177	0.078
Mof_H 	H 	0.9599	0.4037	0.0114	0.202
Mof_H 	H 	0.8161	0.4137	0.0507	0.202
Mof_H 	H 	0.6151	0.1609	0.2777	0.163
Mof_H 	H 	0.4828	0.1872	0.236	0.153
Mof_H 	H 	0.4595	0.5228	0.1593	0.078
Mof_H 	H 	0.0989	0.4283	0.5955	0.061
Mof_H 	H 	0.3698	0.1286	0.4095	0.19
Mof_H 	H 	0.3007	0.1239	0.5096	0.194
Mof_H 	H 	0.0842	0.3839	0.3503	0.184
Mof_H 	H 	0.1503	0.366	0.4471	0.17
Mof_H 	H 	0.417	0.0278	0.3537	0.074
Mof_H 	H 	0.7117	0.4566	0.3096	0.062
Mof_H 	H 	0.5004	0.3414	0.2115	0.169
Mof_H 	H 	0.6399	0.371	0.1942	0.177
Mof_H 	H 	0.3346	0.4039	0.2917	0.05
Mof_H 	H 	0.4996	0.0692	0.6281	0.083
Mof_H 	H 	0.1424	0.0354	0.3637	0.085
Mof_H 	H 	0.8179	0.0775	0.4428	0.183
Mof_H 	H 	0.9649	0.0908	0.472	0.181
Mof_H 	H 	0.2021	0.9389	0.3099	0.057
Mof_H 	H 	0.8226	0.8856	0.32	0.046
Mof_H 	H 	0.7647	0.9835	0.374	0.085
Mof_H 	H 	0.2696	0.4947	0.3671	0.079
Mof_H 	H 	0.6468	0.5477	0.3823	0.077
Mof_H 	H 	0.4599	0.5963	0.4886	0.201
Mof_H 	H 	0.3161	0.5863	0.4493	0.201
Mof_H 	H 	0.1151	0.8391	0.2223	0.163
Mof_H 	H 	0.9828	0.8128	0.264	0.155
Mof_H 	H 	0.9595	0.4772	0.3407	0.078
Mof_H 	H 	0.4011	0.4283	0.0955	0.061
Mof_H 	H 	0.1302	0.1286	0.9095	0.19
Mof_H 	H 	0.1993	0.1239	0.0096	0.194
Mof_H 	H 	0.4158	0.3839	0.8503	0.184
Mof_H 	H 	0.3497	0.366	0.9471	0.17
Mof_H 	H 	0.083	0.0278	0.8537	0.073
Mof_H 	H 	0.7883	0.4566	0.8096	0.061
Mof_H 	H 	0.9996	0.3414	0.7115	0.168
Mof_H 	H 	0.8601	0.371	0.6942	0.176
Mof_H 	H 	0.1654	0.4039	0.7917	0.049
Mof_H 	H 	0.0004	0.0692	0.1281	0.083
Mof_H 	H 	0.3576	0.0354	0.8637	0.086
Mof_H 	H 	0.6821	0.0775	0.9428	0.184
Mof_H 	H 	0.5351	0.0908	0.972	0.182
Mof_H 	H 	0.2979	0.9389	0.8099	0.056
Mof_H 	H 	0.6774	0.8856	0.82	0.046
Mof_H 	H 	0.7353	0.9835	0.874	0.085
Mof_H 	H 	0.2304	0.4947	0.8671	0.08
Mof_H 	H 	0.8532	0.5477	0.8823	0.078
Mof_H 	H 	0.0401	0.5963	0.9886	0.202
Mof_H 	H 	0.1839	0.5863	0.9493	0.202
Mof_H 	H 	0.3849	0.8391	0.7223	0.163
Mof_H 	H 	0.5172	0.8128	0.764	0.153
Mof_H 	H 	0.5405	0.4772	0.8407	0.078
Mof_H 	H 	0.9011	0.5717	0.4045	0.061
Mof_H 	H 	0.6302	0.8714	0.5905	0.19
Mof_H 	H 	0.6993	0.8761	0.4904	0.194
Mof_H 	H 	0.9158	0.6161	0.6497	0.184
Mof_H 	H 	0.8497	0.634	0.5529	0.17
Mof_H 	H 	0.583	0.9722	0.6463	0.074
Mof_H 	H 	0.2883	0.5434	0.6904	0.062
Mof_H 	H 	0.4996	0.6586	0.7885	0.169
Mof_H 	H 	0.3601	0.629	0.8058	0.177
Mof_H 	H 	0.6654	0.5961	0.7083	0.05
Mof_H 	H 	0.5004	0.9308	0.3719	0.083
Mof_H 	H 	0.8576	0.9646	0.6363	0.085
Mof_H 	H 	0.1821	0.9225	0.5572	0.183
Mof_H 	H 	0.0351	0.9092	0.528	0.181
Mof_H 	H 	0.7979	0.0611	0.6901	0.057
Mof_H 	H 	0.1774	0.1144	0.68	0.046
Mof_H 	H 	0.2353	0.0165	0.626	0.085
Mof_H 	H 	0.7304	0.5053	0.6329	0.079
Mof_H 	H 	0.3532	0.4523	0.6177	0.077
Mof_H 	H 	0.5401	0.4037	0.5114	0.201
Mof_H 	H 	0.6839	0.4137	0.5507	0.201
Mof_H 	H 	0.8849	0.1609	0.7777	0.163
Mof_H 	H 	0.0172	0.1872	0.736	0.155
Mof_H 	H 	0.0405	0.5228	0.6593	0.078
Mof_C 	C 	0.5591	0.5429	0.9432	-0.107
Mof_C 	C 	0.9761	0.828	0.9828	0.644
Mof_C 	C 	0.1365	0.6821	0.1882	0.56
Mof_C 	C 	0.4612	0.6661	0.0664	0.547
Mof_C 	C 	0.8855	0.8781	0.0231	-0.567
Mof_C 	C 	0.5356	0.5573	0.0394	0.185
Mof_C 	C 	0.5688	0.6196	0.0816	-0.522
Mof_C 	C 	0.9467	0.941	0.0111	0.184
Mof_C 	C 	0.9499	0.9833	0.0871	-0.123
Mof_C 	C 	0.0291	0.5796	0.2072	0.156
Mof_C 	C 	0.1221	0.5359	0.1795	-0.094
Mof_C 	C 	0.0754	0.6387	0.257	-0.511
Mof_C 	C 	0.411	0.8662	0.1487	0.574
Mof_C 	C 	0.8985	0.5673	0.1899	-0.092
Mof_C 	C 	0.9991	0.9586	0.9236	-0.122
Mof_C 	C 	0.448	0.9809	0.1229	0.216
Mof_C 	C 	0.5778	0.9947	0.144	-0.155
Mof_C 	C 	0.4075	0.9191	0.0819	-0.549
Mof_C 	C 	0.5194	0.0989	0.1887	0.127
Mof_C 	C 	0.6136	0.0527	0.1763	-0.077
Mof_C 	C 	0.3879	0.0847	0.1705	-0.081
Mof_C 	C 	0.3533	0.0257	0.1379	-0.162
Mof_C 	C 	0.859	0.5124	0.145	-0.154
Mof_C 	C 	0.0829	0.4811	0.1358	-0.143
Mof_C 	C 	0.9515	0.4685	0.1185	0.214
Mof_C 	C 	0.9082	0.4094	0.0695	-0.564
Mof_C 	C 	0.9208	0.3522	0.127	0.575
Mof_C 	C 	0.5607	0.1628	0.2206	-0.463
Mof_C 	C 	0.6381	0.1924	0.1418	0.508
Mof_C 	C 	0.4761	0.5138	0.095	-0.124
Mof_C 	C 	0.0591	0.4571	0.5568	-0.107
Mof_C 	C 	0.4761	0.172	0.5172	0.644
Mof_C 	C 	0.6365	0.3179	0.3118	0.561
Mof_C 	C 	0.9612	0.3339	0.4336	0.547
Mof_C 	C 	0.3855	0.1219	0.4769	-0.567
Mof_C 	C 	0.0356	0.4427	0.4606	0.184
Mof_C 	C 	0.0688	0.3804	0.4184	-0.522
Mof_C 	C 	0.4467	0.059	0.4889	0.183
Mof_C 	C 	0.4499	0.0167	0.4129	-0.124
Mof_C 	C 	0.5291	0.4204	0.2928	0.16
Mof_C 	C 	0.6221	0.4641	0.3205	-0.098
Mof_C 	C 	0.5754	0.3613	0.243	-0.514
Mof_C 	C 	0.911	0.1338	0.3513	0.574
Mof_C 	C 	0.3985	0.4327	0.3101	-0.096
Mof_C 	C 	0.4991	0.0414	0.5764	-0.121
Mof_C 	C 	0.948	0.0191	0.3771	0.215
Mof_C 	C 	0.0778	0.0053	0.356	-0.152
Mof_C 	C 	0.9075	0.0809	0.4181	-0.548
Mof_C 	C 	0.0194	0.9011	0.3113	0.128
Mof_C 	C 	0.1136	0.9473	0.3237	-0.079
Mof_C 	C 	0.8879	0.9153	0.3295	-0.082
Mof_C 	C 	0.8533	0.9743	0.3621	-0.162
Mof_C 	C 	0.359	0.4876	0.355	-0.15
Mof_C 	C 	0.5829	0.5189	0.3642	-0.139
Mof_C 	C 	0.4515	0.5315	0.3815	0.21
Mof_C 	C 	0.4082	0.5906	0.4305	-0.561
Mof_C 	C 	0.4208	0.6478	0.373	0.574
Mof_C 	C 	0.0607	0.8372	0.2794	-0.466
Mof_C 	C 	0.1381	0.8076	0.3582	0.508
Mof_C 	C 	0.9761	0.4862	0.405	-0.124
Mof_C 	C 	0.4409	0.4571	0.0568	-0.107
Mof_C 	C 	0.0239	0.172	0.0172	0.644
Mof_C 	C 	0.8635	0.3179	0.8118	0.56
Mof_C 	C 	0.5388	0.3339	0.9336	0.547
Mof_C 	C 	0.1145	0.1219	0.9769	-0.567
Mof_C 	C 	0.4644	0.4427	0.9606	0.185
Mof_C 	C 	0.4312	0.3804	0.9184	-0.522
Mof_C 	C 	0.0533	0.059	0.9889	0.184
Mof_C 	C 	0.0501	0.0167	0.9129	-0.123
Mof_C 	C 	0.9709	0.4204	0.7928	0.156
Mof_C 	C 	0.8779	0.4641	0.8205	-0.094
Mof_C 	C 	0.9246	0.3613	0.743	-0.511
Mof_C 	C 	0.589	0.1338	0.8513	0.574
Mof_C 	C 	0.1015	0.4327	0.8101	-0.092
Mof_C 	C 	0.0009	0.0414	0.0764	-0.122
Mof_C 	C 	0.552	0.0191	0.8771	0.216
Mof_C 	C 	0.4222	0.0053	0.856	-0.155
Mof_C 	C 	0.5925	0.0809	0.9181	-0.549
Mof_C 	C 	0.4806	0.9011	0.8113	0.127
Mof_C 	C 	0.3864	0.9473	0.8237	-0.077
Mof_C 	C 	0.6121	0.9153	0.8295	-0.081
Mof_C 	C 	0.6467	0.9743	0.8621	-0.162
Mof_C 	C 	0.141	0.4876	0.855	-0.154
Mof_C 	C 	0.9171	0.5189	0.8642	-0.143
Mof_C 	C 	0.0485	0.5315	0.8815	0.214
Mof_C 	C 	0.0918	0.5906	0.9305	-0.564
Mof_C 	C 	0.0792	0.6478	0.873	0.575
Mof_C 	C 	0.4393	0.8372	0.7794	-0.463
Mof_C 	C 	0.3619	0.8076	0.8582	0.508
Mof_C 	C 	0.5239	0.4862	0.905	-0.124
Mof_C 	C 	0.9409	0.5429	0.4432	-0.107
Mof_C 	C 	0.5239	0.828	0.4828	0.644
Mof_C 	C 	0.3635	0.6821	0.6882	0.561
Mof_C 	C 	0.0388	0.6661	0.5664	0.547
Mof_C 	C 	0.6145	0.8781	0.5231	-0.567
Mof_C 	C 	0.9644	0.5573	0.5394	0.184
Mof_C 	C 	0.9312	0.6196	0.5816	-0.522
Mof_C 	C 	0.5533	0.941	0.5111	0.183
Mof_C 	C 	0.5501	0.9833	0.5871	-0.124
Mof_C 	C 	0.4709	0.5796	0.7072	0.16
Mof_C 	C 	0.3779	0.5359	0.6795	-0.098
Mof_C 	C 	0.4246	0.6387	0.757	-0.514
Mof_C 	C 	0.089	0.8662	0.6487	0.574
Mof_C 	C 	0.6015	0.5673	0.6899	-0.096
Mof_C 	C 	0.5009	0.9586	0.4236	-0.121
Mof_C 	C 	0.052	0.9809	0.6229	0.215
Mof_C 	C 	0.9222	0.9947	0.644	-0.152
Mof_C 	C 	0.0925	0.9191	0.5819	-0.548
Mof_C 	C 	0.9806	0.0989	0.6887	0.128
Mof_C 	C 	0.8864	0.0527	0.6763	-0.079
Mof_C 	C 	0.1121	0.0847	0.6705	-0.082
Mof_C 	C 	0.1467	0.0257	0.6379	-0.162
Mof_C 	C 	0.641	0.5124	0.645	-0.15
Mof_C 	C 	0.4171	0.4811	0.6358	-0.139
Mof_C 	C 	0.5485	0.4685	0.6185	0.21
Mof_C 	C 	0.5918	0.4094	0.5695	-0.561
Mof_C 	C 	0.5792	0.3522	0.627	0.574
Mof_C 	C 	0.9393	0.1628	0.7206	-0.466
Mof_C 	C 	0.8619	0.1924	0.6418	0.508
Mof_C 	C 	0.0239	0.5138	0.595	-0.124
Mof_O 	O 	0.3289	0.82333	0.1347	-0.702
Mof_O 	O 	0.0684	0.81148	0.0354	-0.629
Mof_O 	O 	0.0871	0.6874	0.1073	-0.542
Mof_O 	O 	0.2353	0.71445	0.2101	-0.653
Mof_O 	O 	0.4693	0.71787	0.1111	-0.665
Mof_O 	O 	0.3666	0.65476	0.013	-0.56
Mof_O 	O 	0.4914	0.8634	0.2152	-0.527
Mof_O 	O 	0.0455	0.19292	0.0999	-0.605
Mof_O 	O 	0.981	0.3508	0.2033	-0.536
Mof_O 	O 	0.8663	0.30255	0.095	-0.719
Mof_O 	O 	0.7624	0.18999	0.139	-0.614
Mof_O 	O 	0.576	0.2176	0.0753	-0.542
Mof_O 	O 	0.8289	0.17667	0.3653	-0.702
Mof_O 	O 	0.5684	0.18852	0.4646	-0.628
Mof_O 	O 	0.5871	0.3126	0.3927	-0.541
Mof_O 	O 	0.7353	0.28555	0.2899	-0.653
Mof_O 	O 	0.9693	0.28213	0.3889	-0.665
Mof_O 	O 	0.8666	0.34524	0.487	-0.56
Mof_O 	O 	0.9914	0.1366	0.2848	-0.527
Mof_O 	O 	0.5455	0.80708	0.4001	-0.605
Mof_O 	O 	0.481	0.6492	0.2967	-0.536
Mof_O 	O 	0.3663	0.69745	0.405	-0.719
Mof_O 	O 	0.2624	0.81001	0.361	-0.615
Mof_O 	O 	0.076	0.7824	0.4247	-0.543
Mof_O 	O 	0.6711	0.17667	0.8653	-0.702
Mof_O 	O 	0.9316	0.18852	0.9646	-0.629
Mof_O 	O 	0.9129	0.3126	0.8927	-0.542
Mof_O 	O 	0.7647	0.28555	0.7899	-0.653
Mof_O 	O 	0.5307	0.28213	0.8889	-0.665
Mof_O 	O 	0.6334	0.34524	0.987	-0.56
Mof_O 	O 	0.5086	0.1366	0.7848	-0.527
Mof_O 	O 	0.9545	0.80708	0.9001	-0.605
Mof_O 	O 	0.019	0.6492	0.7967	-0.536
Mof_O 	O 	0.1337	0.69745	0.905	-0.719
Mof_O 	O 	0.2376	0.81001	0.861	-0.614
Mof_O 	O 	0.424	0.7824	0.9247	-0.542
Mof_O 	O 	0.1711	0.82333	0.6347	-0.702
Mof_O 	O 	0.4316	0.81148	0.5354	-0.628
Mof_O 	O 	0.4129	0.6874	0.6073	-0.541
Mof_O 	O 	0.2647	0.71445	0.7101	-0.653
Mof_O 	O 	0.0307	0.71787	0.6111	-0.665
Mof_O 	O 	0.1334	0.65476	0.513	-0.56
Mof_O 	O 	0.0086	0.8634	0.7152	-0.527
Mof_O 	O 	0.4545	0.19292	0.5999	-0.605
Mof_O 	O 	0.519	0.3508	0.7033	-0.536
Mof_O 	O 	0.6337	0.30255	0.595	-0.719
Mof_O 	O 	0.7376	0.18999	0.639	-0.615
Mof_O 	O 	0.924	0.2176	0.5753	-0.543
_end
