data_functionalizedCrystal
_audit_creation_method	'EQeq! by Chris Wilmer'
_symmetry_space_group_name_H-M	'P1'
_symmetry_Int_Tables_number	1
_symmetry_cell_setting	triclinic
loop_
_symmetry_equiv_pos_as_xyz
  x,y,z
_cell_length_a	7.7965
_cell_length_b	9.5743
_cell_length_c	11.464
_cell_angle_alpha	91.93
_cell_angle_beta	105.87
_cell_angle_gamma	103.38
loop_
_atom_site_label
_atom_site_type_symbol
_atom_site_fract_x
_atom_site_fract_y
_atom_site_fract_z
_atom_site_charge
Mof_Pr	Pr	0.71366	0.4201	0.4822	2.663
Mof_Pr	Pr	0.28634	0.5799	0.5178	2.663
Mof_H 	H 	0.9498	0.2607	0.312	-0.065
Mof_H 	H 	0.0179	0.0576	0.2479	0.097
Mof_H 	H 	0.8928	0.8366	0.3071	-0.029
Mof_H 	H 	0.6478	0.0429	0.4962	-0.033
Mof_H 	H 	0.2678	0.411	0.8092	0.131
Mof_H 	H 	0.2085	0.5455	0.8502	0.131
Mof_H 	H 	0.0046	0.3886	0.9398	0.034
Mof_H 	H 	0.0871	0.262	0.9087	0.037
Mof_H 	H 	0.3076	0.5155	0.0609	0.009
Mof_H 	H 	0.3765	0.3786	0.0377	0.019
Mof_H 	H 	0.1744	0.2458	0.1395	0.147
Mof_H 	H 	0.12	0.388	0.1688	0.145
Mof_H 	H 	0.0502	0.7393	0.688	-0.066
Mof_H 	H 	0.9821	0.9424	0.7521	0.096
Mof_H 	H 	0.1072	0.1634	0.6929	-0.029
Mof_H 	H 	0.3522	0.9571	0.5038	-0.033
Mof_H 	H 	0.7322	0.589	0.1908	0.131
Mof_H 	H 	0.7915	0.4545	0.1498	0.131
Mof_H 	H 	0.9954	0.6114	0.0602	0.034
Mof_H 	H 	0.9129	0.738	0.0913	0.037
Mof_H 	H 	0.6924	0.4845	0.9391	0.009
Mof_H 	H 	0.6235	0.6214	0.9623	0.019
Mof_H 	H 	0.8256	0.7542	0.8605	0.147
Mof_H 	H 	0.88	0.612	0.8312	0.145
Mof_C 	C 	0.9009	0.1733	0.3378	0.164
Mof_C 	C 	0.941	0.0517	0.2979	-0.236
Mof_C 	C 	0.8662	0.9203	0.3327	0.165
Mof_C 	C 	0.7516	0.9149	0.406	-0.265
Mof_C 	C 	0.7222	0.0453	0.4448	0.171
Mof_C 	C 	0.6621	0.7743	0.4429	0.554
Mof_C 	C 	0.0137	0.4197	0.7063	0.479
Mof_C 	C 	0.1657	0.4428	0.8244	-0.369
Mof_C 	C 	0.1143	0.3656	0.9287	-0.025
Mof_C 	C 	0.2713	0.411	0.0466	0.035
Mof_C 	C 	0.2191	0.3499	0.156	-0.43
Mof_C 	C 	0.3805	0.3868	0.2705	0.553
Mof_C 	C 	0.0991	0.8267	0.6622	0.164
Mof_C 	C 	0.059	0.9483	0.7021	-0.236
Mof_C 	C 	0.1338	0.0797	0.6673	0.165
Mof_C 	C 	0.2484	0.0851	0.594	-0.265
Mof_C 	C 	0.2778	0.9547	0.5552	0.171
Mof_C 	C 	0.3379	0.2257	0.5571	0.554
Mof_C 	C 	0.9863	0.5803	0.2937	0.479
Mof_C 	C 	0.8343	0.5572	0.1756	-0.369
Mof_C 	C 	0.8857	0.6344	0.0713	-0.025
Mof_C 	C 	0.7287	0.589	0.9534	0.035
Mof_C 	C 	0.7809	0.6501	0.844	-0.43
Mof_C 	C 	0.6195	0.6132	0.7295	0.553
Mof_N 	N 	0.795	0.1728	0.412	-0.295
Mof_N 	N 	0.205	0.8272	0.588	-0.295
Mof_O 	O 	0.0407	0.5027	0.6232	-0.738
Mof_O 	O 	0.865	0.3276	0.6865	-0.505
Mof_O 	O 	0.3681	0.452	0.3648	-0.738
Mof_O 	O 	0.5246	0.3512	0.2695	-0.588
Mof_O 	O 	0.5267	0.7705	0.4831	-0.609
Mof_O 	O 	0.7289	0.6687	0.4292	-0.608
Mof_O 	O 	0.9593	0.4973	0.3768	-0.738
Mof_O 	O 	0.135	0.6724	0.3135	-0.505
Mof_O 	O 	0.6319	0.548	0.6352	-0.738
Mof_O 	O 	0.4754	0.6488	0.7305	-0.588
Mof_O 	O 	0.4733	0.2295	0.5169	-0.609
Mof_O 	O 	0.2711	0.3313	0.5708	-0.608
_end
