data_functionalizedCrystal
_audit_creation_method	'EQeq! by Chris Wilmer'
_symmetry_space_group_name_H-M	'P1'
_symmetry_Int_Tables_number	1
_symmetry_cell_setting	triclinic
loop_
_symmetry_equiv_pos_as_xyz
  x,y,z
_cell_length_a	9.003
_cell_length_b	12.118
_cell_length_c	12.865
_cell_angle_alpha	98.74
_cell_angle_beta	90.251
_cell_angle_gamma	93.325
loop_
_atom_site_label
_atom_site_type_symbol
_atom_site_fract_x
_atom_site_fract_y
_atom_site_fract_z
_atom_site_charge
Mof_Zn	Zn	0.40462	0.57505	0.12693	1.219
Mof_O 	O 	0.3506	0.73496	0.19922	-0.397
Mof_O 	O 	0.2001	0.60145	0.24513	-0.361
Mof_C 	C 	0.2423	0.7034	0.2509	0.298
Mof_C 	C 	0.1644	0.7905	0.3223	-0.08
Mof_C 	C 	0.0761	0.7634	0.4024	0.017
Mof_H 	H 	0.0582	0.6871	0.4101	0.043
Mof_C 	C 	0.0126	0.8453	0.4724	-0.086
Mof_H 	H 	0.9538	0.8243	0.5281	0.072
Mof_C 	C 	0.0331	0.9558	0.4623	0.031
Mof_C 	C 	0.0809	0.9775	0.3617	-0.046
Mof_H 	H 	0.0644	0.0474	0.34	0.048
Mof_C 	C 	0.1515	0.8963	0.2954	-0.018
Mof_H 	H 	0.1914	0.9132	0.231	0.031
Mof_O 	O 	0.3548	0.40917	0.0994	-0.477
Mof_O 	O 	0.4077	0.35714	0.92975	-0.483
Mof_C 	C 	0.3453	0.3435	0.0137	0.411
Mof_C 	C 	0.2438	0.241	0.0115	-0.13
Mof_C 	C 	0.1961	0.2027	0.0998	0.049
Mof_H 	H 	0.2282	0.2418	0.1665	0.031
Mof_C 	C 	0.1009	0.1074	0.0947	-0.099
Mof_H 	H 	0.0901	0.0685	0.1533	0.064
Mof_C 	C 	0.018	0.0688	0.9971	0.021
Mof_C 	C 	0.0371	0.1247	0.9115	-0.049
Mof_H 	H 	0.9782	0.1015	0.8497	0.045
Mof_C 	C 	0.1416	0.2143	0.915	-0.009
Mof_H 	H 	0.1491	0.2574	0.8592	0.041
Mof_N 	N 	0.2701	0.6034	0.9936	-0.231
Mof_C 	C 	0.2972	0.6968	0.9517	0.055
Mof_H 	H 	0.3697	0.7511	0.9847	0.01
Mof_C 	C 	0.2245	0.7178	0.8629	-0.088
Mof_H 	H 	0.2476	0.7851	0.8352	0.073
Mof_C 	C 	0.1172	0.6396	0.8141	0.009
Mof_C 	C 	0.0865	0.5446	0.8587	-0.097
Mof_H 	H 	0.0123	0.4899	0.8287	0.075
Mof_C 	C 	0.1653	0.5299	0.9479	0.06
Mof_H 	H 	0.1433	0.464	0.9778	0.006
Mof_C 	C 	0.0427	0.6646	0.7159	0.209
Mof_O 	O 	0.0752	0.7508	0.6821	-0.23
Mof_N 	N 	0.9409	0.5851	0.67	-0.189
Mof_N 	N 	0.8709	0.6017	0.5793	-0.056
Mof_C 	C 	0.7775	0.523	0.5389	-0.048
Mof_H 	H 	0.7606	0.4582	0.5715	0.064
Mof_C 	C 	0.6965	0.5332	0.4418	0.115
Mof_C 	C 	0.6987	0.6325	0.4008	-0.155
Mof_H 	H 	0.7551	0.6967	0.4346	0.091
Mof_C 	C 	0.6182	0.6369	0.3107	0.088
Mof_H 	H 	0.6224	0.7051	0.2826	0.003
Mof_N 	N 	0.5338	0.5499	0.2604	-0.235
Mof_C 	C 	0.5311	0.4546	0.3008	0.09
Mof_H 	H 	0.4719	0.3921	0.2663	0.008
Mof_C 	C 	0.6108	0.4423	0.3907	-0.155
Mof_H 	H 	0.6065	0.3728	0.4166	0.091
Mof_H 	H 	0.91	0.526	0.698	0.144
Mof_C 	C 	0.159	0.9861	0.3986	-0.043
Mof_H 	H 	0.1985	0.0613	0.4059	0.041
Mof_C 	C 	0.22	0.9041	0.3277	0.008
Mof_H 	H 	0.298	0.9232	0.2831	0.036
Mof_C 	C 	0.0856	0.0322	0.0079	0.018
Mof_C 	C 	0.1633	0.0557	0.92	-0.077
Mof_H 	H 	0.1548	0.0045	0.8563	0.059
Mof_C 	C 	0.2526	0.1528	0.9246	0.032
Mof_H 	H 	0.3205	0.1611	0.8696	0.032
Mof_Zn	Zn	0.59538	0.42495	0.87307	1.22
Mof_O 	O 	0.6494	0.26504	0.80078	-0.396
Mof_O 	O 	0.7999	0.39855	0.75487	-0.361
Mof_C 	C 	0.7577	0.2966	0.7491	0.298
Mof_C 	C 	0.8356	0.2095	0.6777	-0.08
Mof_C 	C 	0.9239	0.2366	0.5976	0.017
Mof_H 	H 	0.9418	0.3129	0.5899	0.043
Mof_C 	C 	0.9874	0.1547	0.5276	-0.086
Mof_H 	H 	0.0462	0.1757	0.4719	0.072
Mof_C 	C 	0.9669	0.0442	0.5377	0.031
Mof_C 	C 	0.9191	0.0225	0.6383	-0.046
Mof_H 	H 	0.9356	0.9526	0.66	0.048
Mof_C 	C 	0.8485	0.1037	0.7046	-0.018
Mof_H 	H 	0.8086	0.0868	0.769	0.031
Mof_O 	O 	0.6452	0.59083	0.9006	-0.477
Mof_O 	O 	0.5923	0.64286	0.07025	-0.483
Mof_C 	C 	0.6547	0.6565	0.9863	0.411
Mof_C 	C 	0.7562	0.759	0.9885	-0.13
Mof_C 	C 	0.8039	0.7973	0.9002	0.049
Mof_H 	H 	0.7718	0.7582	0.8335	0.031
Mof_C 	C 	0.8991	0.8926	0.9053	-0.099
Mof_H 	H 	0.9099	0.9315	0.8467	0.064
Mof_C 	C 	0.982	0.9312	0.0029	0.021
Mof_C 	C 	0.9629	0.8753	0.0885	-0.049
Mof_H 	H 	0.0218	0.8985	0.1503	0.045
Mof_C 	C 	0.8584	0.7857	0.085	-0.009
Mof_H 	H 	0.8509	0.7426	0.1408	0.041
Mof_N 	N 	0.7299	0.3966	0.0064	-0.231
Mof_C 	C 	0.7028	0.3032	0.0483	0.055
Mof_H 	H 	0.6303	0.2489	0.0153	0.01
Mof_C 	C 	0.7755	0.2822	0.1371	-0.088
Mof_H 	H 	0.7524	0.2149	0.1648	0.073
Mof_C 	C 	0.8828	0.3604	0.1859	0.009
Mof_C 	C 	0.9135	0.4554	0.1413	-0.097
Mof_H 	H 	0.9877	0.5101	0.1713	0.075
Mof_C 	C 	0.8347	0.4701	0.0521	0.06
Mof_H 	H 	0.8567	0.536	0.0222	0.006
Mof_C 	C 	0.9573	0.3354	0.2841	0.209
Mof_O 	O 	0.9248	0.2492	0.3179	-0.23
Mof_N 	N 	0.0591	0.4149	0.33	-0.189
Mof_N 	N 	0.1291	0.3983	0.4207	-0.056
Mof_C 	C 	0.2225	0.477	0.4611	-0.048
Mof_H 	H 	0.2394	0.5418	0.4285	0.064
Mof_C 	C 	0.3035	0.4668	0.5582	0.115
Mof_C 	C 	0.3013	0.3675	0.5992	-0.155
Mof_H 	H 	0.2449	0.3033	0.5654	0.091
Mof_C 	C 	0.3818	0.3631	0.6893	0.088
Mof_H 	H 	0.3776	0.2949	0.7174	0.003
Mof_N 	N 	0.4662	0.4501	0.7396	-0.235
Mof_C 	C 	0.4689	0.5454	0.6992	0.09
Mof_H 	H 	0.5281	0.6079	0.7337	0.008
Mof_C 	C 	0.3892	0.5577	0.6093	-0.155
Mof_H 	H 	0.3935	0.6272	0.5834	0.091
Mof_H 	H 	0.09	0.474	0.302	0.144
Mof_C 	C 	0.841	0.0139	0.6014	-0.043
Mof_H 	H 	0.8015	0.9387	0.5941	0.041
Mof_C 	C 	0.78	0.0959	0.6723	0.008
Mof_H 	H 	0.702	0.0768	0.7169	0.036
Mof_C 	C 	0.9144	0.9678	0.9921	0.018
Mof_C 	C 	0.8367	0.9443	0.08	-0.077
Mof_H 	H 	0.8452	0.9955	0.1437	0.059
Mof_C 	C 	0.7474	0.8472	0.0754	0.032
Mof_H 	H 	0.6795	0.8389	0.1304	0.032
_end
