data_functionalizedCrystal
_audit_creation_method	'EQeq! by Chris Wilmer'
_symmetry_space_group_name_H-M	'P1'
_symmetry_Int_Tables_number	1
_symmetry_cell_setting	triclinic
loop_
_symmetry_equiv_pos_as_xyz
  x,y,z
_cell_length_a	10.7961
_cell_length_b	11.8333
_cell_length_c	14.5779
_cell_angle_alpha	73.788
_cell_angle_beta	72.083
_cell_angle_gamma	67.049
loop_
_atom_site_label
_atom_site_type_symbol
_atom_site_fract_x
_atom_site_fract_y
_atom_site_fract_z
_atom_site_charge
Mof_Gd	Gd	0.01074	0.44771	0.37185	1.768
Mof_Gd	Gd	0.98926	0.55229	0.62815	1.768
Mof_P 	P 	0.85437	0.28033	0.27438	0.238
Mof_P 	P 	0.14563	0.71967	0.72562	0.238
Mof_H 	H 	0.4882	0.3689	0.5552	0.037
Mof_H 	H 	0.0435	0.1023	0.3822	0.05
Mof_H 	H 	0.7165	0.3248	0.4637	0.068
Mof_H 	H 	0.0331	0.1814	0.1064	0.035
Mof_H 	H 	0.3622	0.3764	0.3186	0.001
Mof_H 	H 	0.5911	0.3252	0.2284	0.06
Mof_H 	H 	0.8116	0.0799	0.2194	0.053
Mof_H 	H 	0.7489	0.5734	0.9819	0.042
Mof_H 	H 	0.0719	0.2576	0.9375	0.056
Mof_H 	H 	0.1074	0.8854	0.4358	0.027
Mof_H 	H 	0.8876	0.863	0.2653	0.035
Mof_H 	H 	0.7188	0.5019	0.1516	0.054
Mof_H 	H 	0.5118	0.6311	0.4448	0.037
Mof_H 	H 	0.9565	0.8977	0.6178	0.05
Mof_H 	H 	0.2835	0.6752	0.5363	0.068
Mof_H 	H 	0.9669	0.8186	0.8936	0.035
Mof_H 	H 	0.6378	0.6236	0.6814	0.001
Mof_H 	H 	0.4089	0.6748	0.7716	0.06
Mof_H 	H 	0.1884	0.9201	0.7806	0.053
Mof_H 	H 	0.2511	0.4266	0.0181	0.042
Mof_H 	H 	0.9281	0.7424	0.0625	0.056
Mof_H 	H 	0.8926	0.1146	0.5642	0.027
Mof_H 	H 	0.1124	0.137	0.7347	0.035
Mof_H 	H 	0.2812	0.4981	0.8484	0.054
Mof_C 	C 	0.8683	0.333	0.1448	-0.037
Mof_C 	C 	0.5089	0.3616	0.4885	0.033
Mof_C 	C 	0.9189	0.1119	0.2977	-0.011
Mof_C 	C 	0.6749	0.3215	0.337	-0.004
Mof_C 	C 	0.0089	0.0542	0.3605	-0.081
Mof_C 	C 	0.6448	0.3344	0.4344	-0.075
Mof_C 	C 	0.4036	0.378	0.4454	-0.14
Mof_C 	C 	0.9753	0.2611	0.0812	-0.027
Mof_C 	C 	0.4342	0.3651	0.3482	0.049
Mof_C 	C 	0.5702	0.3356	0.2944	-0.094
Mof_C 	C 	0.8726	0.0404	0.2627	-0.076
Mof_C 	C 	0.9119	0.4209	0.9432	-0.057
Mof_C 	C 	0.9359	0.4656	0.8342	0.297
Mof_C 	C 	0.8072	0.4939	0.007	-0.005
Mof_C 	C 	0.9975	0.3061	0.9807	-0.029
Mof_C 	C 	0.0008	0.8542	0.3579	-0.128
Mof_C 	C 	0.0479	0.925	0.3914	0.029
Mof_C 	C 	0.9159	0.9119	0.2912	0.023
Mof_C 	C 	0.0347	0.7161	0.3983	0.426
Mof_C 	C 	0.257	0.4147	0.5044	0.413
Mof_C 	C 	0.7879	0.4503	0.108	-0.043
Mof_C 	C 	0.1317	0.667	0.8552	-0.037
Mof_C 	C 	0.4911	0.6384	0.5115	0.033
Mof_C 	C 	0.0811	0.8881	0.7023	-0.011
Mof_C 	C 	0.3251	0.6785	0.663	-0.004
Mof_C 	C 	0.9911	0.9458	0.6395	-0.081
Mof_C 	C 	0.3552	0.6656	0.5656	-0.075
Mof_C 	C 	0.5964	0.622	0.5546	-0.14
Mof_C 	C 	0.0247	0.7389	0.9188	-0.027
Mof_C 	C 	0.5658	0.6349	0.6518	0.049
Mof_C 	C 	0.4298	0.6644	0.7056	-0.094
Mof_C 	C 	0.1274	0.9596	0.7373	-0.076
Mof_C 	C 	0.0881	0.5791	0.0568	-0.057
Mof_C 	C 	0.0641	0.5344	0.1658	0.297
Mof_C 	C 	0.1928	0.5061	0.993	-0.005
Mof_C 	C 	0.0025	0.6939	0.0193	-0.029
Mof_C 	C 	0.9992	0.1458	0.6421	-0.128
Mof_C 	C 	0.9521	0.075	0.6086	0.029
Mof_C 	C 	0.0841	0.0881	0.7088	0.023
Mof_C 	C 	0.9653	0.2839	0.6017	0.426
Mof_C 	C 	0.743	0.5853	0.4956	0.413
Mof_C 	C 	0.2121	0.5497	0.892	-0.043
Mof_O 	O 	0.0567	0.4257	0.78364	-0.352
Mof_O 	O 	0.2332	0.4408	0.58755	-0.417
Mof_O 	O 	0.0656	0.6801	0.4812	-0.463
Mof_O 	O 	0.8361	0.5412	0.79568	-0.387
Mof_O 	O 	0.0272	0.6495	0.34803	-0.446
Mof_O 	O 	0.1612	0.4247	0.46648	-0.526
Mof_O 	O 	0.9308	0.3287	0.31507	-0.396
Mof_O 	O 	0.9433	0.5743	0.21636	-0.352
Mof_O 	O 	0.7668	0.5592	0.41245	-0.417
Mof_O 	O 	0.9344	0.3199	0.5188	-0.463
Mof_O 	O 	0.1639	0.4588	0.20432	-0.387
Mof_O 	O 	0.9728	0.3505	0.65197	-0.446
Mof_O 	O 	0.8388	0.5753	0.53352	-0.526
Mof_O 	O 	0.0692	0.6713	0.68493	-0.396
_end
