data_functionalizedCrystal
_audit_creation_method	'EQeq! by Chris Wilmer'
_symmetry_space_group_name_H-M	'P1'
_symmetry_Int_Tables_number	1
_symmetry_cell_setting	triclinic
loop_
_symmetry_equiv_pos_as_xyz
  x,y,z
_cell_length_a	23.3533
_cell_length_b	20.5379
_cell_length_c	12.6226
_cell_angle_alpha	90
_cell_angle_beta	98.32
_cell_angle_gamma	90
loop_
_atom_site_label
_atom_site_type_symbol
_atom_site_fract_x
_atom_site_fract_y
_atom_site_fract_z
_atom_site_charge
Mof_Ag	Ag	0.26403	0.07676	0.5718	0.434
Mof_N 	N 	0.4221	0.042	0.352	-0.17
Mof_N 	N 	0.4984	0.4674	0.407	-0.174
Mof_N 	N 	0.0823	0.1548	0.341	-0.182
Mof_N 	N 	0.337	0.049	0.482	-0.168
Mof_N 	N 	0.1853	0.1162	0.462	-0.17
Mof_C 	C 	0.3902	0.0664	0.517	-0.006
Mof_H 	H 	0.399	0.0832	0.5854	0.007
Mof_C 	C 	0.0269	0.402	0.181	-0.019
Mof_H 	H 	0.0498	0.4235	0.1377	0.016
Mof_C 	C 	0.1581	0.077	0.388	-0.011
Mof_H 	H 	0.1725	0.0359	0.3773	-0.002
Mof_C 	C 	0.1666	0.175	0.471	-0.001
Mof_H 	H 	0.1873	0.2039	0.519	-0.004
Mof_C 	C 	0.4342	0.061	0.453	-0.003
Mof_H 	H 	0.4722	0.0698	0.4824	0.005
Mof_C 	C 	0.1124	0.196	0.406	-0.006
Mof_H 	H 	0.0994	0.238	0.4109	0.004
Mof_C 	C 	0.369	0.024	0.32	0.021
Mof_H 	H 	0.3596	0.0099	0.2495	-0.015
Mof_C 	C 	0.5496	0.4761	0.472	-0.015
Mof_H 	H 	0.5838	0.4602	0.4526	0
Mof_C 	C 	0.4751	0.1999	0.323	-0.023
Mof_H 	H 	0.4577	0.1777	0.374	0.017
Mof_C 	C 	0.4767	0.273	0.318	0.024
Mof_H 	H 	0.4595	0.2968	0.3674	-0.009
Mof_C 	C 	0.107	0.0994	0.325	0.008
Mof_H 	H 	0.0899	0.073	0.2693	-0.008
Mof_C 	C 	0.326	0.024	0.381	-0.027
Mof_H 	H 	0.2892	0.0085	0.3539	0
Mof_C 	C 	0.0197	0.3314	0.174	0.001
Mof_H 	H 	0.0293	0.3094	0.1148	-0.005
Mof_C 	C 	0.4497	0.4914	0.432	0.004
Mof_H 	H 	0.4153	0.4863	0.3859	-0.007
Mof_Ag	Ag	0.73597	0.07676	0.9282	0.436
Mof_N 	N 	0.5779	0.042	0.148	-0.169
Mof_N 	N 	0.5016	0.4674	0.093	-0.174
Mof_N 	N 	0.9177	0.1548	0.159	-0.172
Mof_N 	N 	0.663	0.049	0.018	-0.166
Mof_N 	N 	0.8147	0.1162	0.038	-0.17
Mof_C 	C 	0.6098	0.0664	0.983	-0.01
Mof_H 	H 	0.601	0.0832	0.9146	0.008
Mof_C 	C 	0.9731	0.402	0.319	0.014
Mof_H 	H 	0.9502	0.4235	0.3623	0.016
Mof_C 	C 	0.8419	0.077	0.112	-0.009
Mof_H 	H 	0.8275	0.0359	0.1227	-0.001
Mof_C 	C 	0.8334	0.175	0.029	0.004
Mof_H 	H 	0.8127	0.2039	0.981	-0.005
Mof_C 	C 	0.5658	0.061	0.047	-0
Mof_H 	H 	0.5278	0.0698	0.0176	0.005
Mof_C 	C 	0.8876	0.196	0.094	-0.006
Mof_H 	H 	0.9006	0.238	0.0891	0.012
Mof_C 	C 	0.631	0.024	0.18	0.022
Mof_H 	H 	0.6404	0.0099	0.2505	-0.015
Mof_C 	C 	0.4504	0.4761	0.028	-0.014
Mof_H 	H 	0.4162	0.4602	0.0474	-0
Mof_C 	C 	0.5249	0.1999	0.177	-0.023
Mof_H 	H 	0.5423	0.1777	0.126	0.018
Mof_C 	C 	0.5233	0.273	0.182	0.024
Mof_H 	H 	0.5405	0.2968	0.1326	-0.009
Mof_C 	C 	0.893	0.0994	0.175	0.01
Mof_H 	H 	0.9101	0.073	0.2307	-0.001
Mof_C 	C 	0.674	0.024	0.119	-0.027
Mof_H 	H 	0.7108	0.0085	0.1461	0.001
Mof_C 	C 	0.9803	0.3314	0.326	0.033
Mof_H 	H 	0.9707	0.3094	0.3852	0.001
Mof_C 	C 	0.5503	0.4914	0.068	0.005
Mof_H 	H 	0.5847	0.4863	0.1141	-0.007
Mof_Ag	Ag	0.73597	0.92324	0.4282	0.438
Mof_N 	N 	0.5779	0.958	0.648	-0.169
Mof_N 	N 	0.5016	0.5326	0.593	-0.174
Mof_N 	N 	0.9177	0.8452	0.659	-0.172
Mof_N 	N 	0.663	0.951	0.518	-0.168
Mof_N 	N 	0.8147	0.8838	0.538	-0.17
Mof_C 	C 	0.6098	0.9336	0.483	-0.006
Mof_H 	H 	0.601	0.9168	0.4146	0.007
Mof_C 	C 	0.9731	0.598	0.819	0.014
Mof_H 	H 	0.9502	0.5765	0.8623	0.016
Mof_C 	C 	0.8419	0.923	0.612	-0.009
Mof_H 	H 	0.8275	0.9641	0.6227	-0.001
Mof_C 	C 	0.8334	0.825	0.529	0.002
Mof_H 	H 	0.8127	0.7961	0.481	-0.003
Mof_C 	C 	0.5658	0.939	0.547	-0.003
Mof_H 	H 	0.5278	0.9302	0.5176	0.005
Mof_C 	C 	0.8876	0.804	0.594	-0.006
Mof_H 	H 	0.9006	0.762	0.5891	0.011
Mof_C 	C 	0.631	0.976	0.68	0.021
Mof_H 	H 	0.6404	0.9901	0.7505	-0.015
Mof_C 	C 	0.4504	0.5239	0.528	-0.015
Mof_H 	H 	0.4162	0.5398	0.5474	-0
Mof_C 	C 	0.5249	0.8001	0.677	-0.023
Mof_H 	H 	0.5423	0.8223	0.626	0.017
Mof_C 	C 	0.5233	0.727	0.682	0.024
Mof_H 	H 	0.5405	0.7032	0.6326	-0.009
Mof_C 	C 	0.893	0.9006	0.675	0.01
Mof_H 	H 	0.9101	0.927	0.7307	-0.001
Mof_C 	C 	0.674	0.976	0.619	-0.027
Mof_H 	H 	0.7108	0.9915	0.6461	0.001
Mof_C 	C 	0.9803	0.6686	0.826	0.033
Mof_H 	H 	0.9707	0.6906	0.8852	0.001
Mof_C 	C 	0.5503	0.5086	0.568	0.004
Mof_H 	H 	0.5847	0.5137	0.6141	-0.007
Mof_Ag	Ag	0.26403	0.92324	0.0718	0.435
Mof_N 	N 	0.4221	0.958	0.852	-0.169
Mof_N 	N 	0.4984	0.5326	0.907	-0.174
Mof_N 	N 	0.0823	0.8452	0.841	-0.182
Mof_N 	N 	0.337	0.951	0.982	-0.167
Mof_N 	N 	0.1853	0.8838	0.962	-0.17
Mof_C 	C 	0.3902	0.9336	0.017	-0.007
Mof_H 	H 	0.399	0.9168	0.0854	0.008
Mof_C 	C 	0.0269	0.598	0.681	-0.02
Mof_H 	H 	0.0498	0.5765	0.6377	0.016
Mof_C 	C 	0.1581	0.923	0.888	-0.011
Mof_H 	H 	0.1725	0.9641	0.8773	-0.002
Mof_C 	C 	0.1666	0.825	0.971	-0.001
Mof_H 	H 	0.1873	0.7961	0.019	-0.004
Mof_C 	C 	0.4342	0.939	0.953	-0.002
Mof_H 	H 	0.4722	0.9302	0.9824	0.005
Mof_C 	C 	0.1124	0.804	0.906	-0.006
Mof_H 	H 	0.0994	0.762	0.9109	0.004
Mof_C 	C 	0.369	0.976	0.82	0.021
Mof_H 	H 	0.3596	0.9901	0.7495	-0.015
Mof_C 	C 	0.5496	0.5239	0.972	-0.016
Mof_H 	H 	0.5838	0.5398	0.9526	0
Mof_C 	C 	0.4751	0.8001	0.823	-0.023
Mof_H 	H 	0.4577	0.8223	0.874	0.017
Mof_C 	C 	0.4767	0.727	0.818	0.024
Mof_H 	H 	0.4595	0.7032	0.8674	-0.009
Mof_C 	C 	0.107	0.9006	0.825	0.008
Mof_H 	H 	0.0899	0.927	0.7693	-0.008
Mof_C 	C 	0.326	0.976	0.881	-0.027
Mof_H 	H 	0.2892	0.9915	0.8539	0
Mof_C 	C 	0.0197	0.6686	0.674	0.001
Mof_H 	H 	0.0293	0.6906	0.6148	-0.006
Mof_C 	C 	0.4497	0.5086	0.932	0.003
Mof_H 	H 	0.4153	0.5137	0.8859	-0.007
Mof_Ag	Ag	0.5	0.413	0.25	0.515
Mof_Ag	Ag	0.5	0.0544	0.25	0.55
Mof_N 	N 	0.5	0.303	0.25	-0.19
Mof_N 	N 	0.5	0.17	0.25	-0.158
Mof_Ag	Ag	0.5	0.587	0.75	0.515
Mof_Ag	Ag	0.5	0.9456	0.75	0.55
Mof_N 	N 	0.5	0.697	0.75	-0.19
Mof_N 	N 	0.5	0.83	0.75	-0.158
Mof_Ag	Ag	5.79955e-34	0.1867	0.25	0.504
Mof_N 	N 	5.79955e-34	0.434	0.25	-0.169
Mof_N 	N 	5.79955e-34	0.299	0.25	-0.19
Mof_Ag	Ag	1.73987e-33	0.8133	0.75	0.503
Mof_N 	N 	1.73987e-33	0.566	0.75	-0.169
Mof_N 	N 	1.73987e-33	0.701	0.75	-0.19
Mof_Ag	Ag	0.76403	0.57676	0.5718	0.439
Mof_N 	N 	0.9221	0.542	0.352	-0.159
Mof_N 	N 	0.9984	0.9674	0.407	-0.143
Mof_N 	N 	0.5823	0.6548	0.341	-0.184
Mof_N 	N 	0.837	0.549	0.482	-0.168
Mof_N 	N 	0.6853	0.6162	0.462	-0.17
Mof_C 	C 	0.8902	0.5664	0.517	-0.001
Mof_H 	H 	0.899	0.5832	0.5854	0.011
Mof_C 	C 	0.5269	0.902	0.181	-0.013
Mof_H 	H 	0.5498	0.9235	0.1377	0.017
Mof_C 	C 	0.6581	0.577	0.388	-0.012
Mof_H 	H 	0.6725	0.5359	0.3773	-0.002
Mof_C 	C 	0.6666	0.675	0.471	-0.001
Mof_H 	H 	0.6873	0.7039	0.519	-0.003
Mof_C 	C 	0.9342	0.561	0.453	-0.003
Mof_H 	H 	0.9722	0.5698	0.4824	0.019
Mof_C 	C 	0.6124	0.696	0.406	-0.006
Mof_H 	H 	0.5994	0.738	0.4109	0.005
Mof_C 	C 	0.869	0.524	0.32	0.021
Mof_H 	H 	0.8596	0.5099	0.2495	-0.011
Mof_C 	C 	0.0496	0.9761	0.472	-0.054
Mof_H 	H 	0.0838	0.9602	0.4526	0.012
Mof_C 	C 	0.9751	0.6999	0.323	0.002
Mof_H 	H 	0.9577	0.6777	0.374	0.016
Mof_C 	C 	0.9767	0.773	0.318	0.055
Mof_H 	H 	0.9595	0.7968	0.3674	-0.011
Mof_C 	C 	0.607	0.5994	0.325	0.01
Mof_H 	H 	0.5899	0.573	0.2693	-0.008
Mof_C 	C 	0.826	0.524	0.381	-0.024
Mof_H 	H 	0.7892	0.5085	0.3539	-0
Mof_C 	C 	0.5197	0.8314	0.174	0.006
Mof_H 	H 	0.5293	0.8094	0.1148	-0.002
Mof_C 	C 	0.9497	0.9914	0.432	-0.01
Mof_H 	H 	0.9153	0.9863	0.3859	0.003
Mof_Ag	Ag	0.23597	0.57676	0.9282	0.434
Mof_N 	N 	0.0779	0.542	0.148	-0.168
Mof_N 	N 	0.0016	0.9674	0.093	-0.193
Mof_N 	N 	0.4177	0.6548	0.159	-0.184
Mof_N 	N 	0.163	0.549	0.018	-0.167
Mof_N 	N 	0.3147	0.6162	0.038	-0.169
Mof_C 	C 	0.1098	0.5664	0.983	-0.01
Mof_H 	H 	0.101	0.5832	0.9146	0.006
Mof_C 	C 	0.4731	0.902	0.319	-0.013
Mof_H 	H 	0.4502	0.9235	0.3623	0.017
Mof_C 	C 	0.3419	0.577	0.112	-0.012
Mof_H 	H 	0.3275	0.5359	0.1227	-0.002
Mof_C 	C 	0.3334	0.675	0.029	-0.001
Mof_H 	H 	0.3127	0.7039	0.981	-0.004
Mof_C 	C 	0.0658	0.561	0.047	-0.002
Mof_H 	H 	0.0278	0.5698	0.0176	-0.002
Mof_C 	C 	0.3876	0.696	0.094	-0.006
Mof_H 	H 	0.4006	0.738	0.0891	0.005
Mof_C 	C 	0.131	0.524	0.18	0.021
Mof_H 	H 	0.1404	0.5099	0.2505	-0.014
Mof_C 	C 	0.9504	0.9761	0.028	0.027
Mof_H 	H 	0.9162	0.9602	0.0474	-0.008
Mof_C 	C 	0.0249	0.6999	0.177	-0.028
Mof_H 	H 	0.0423	0.6777	0.126	0.017
Mof_C 	C 	0.0233	0.773	0.182	0.02
Mof_H 	H 	0.0405	0.7968	0.1326	-0.01
Mof_C 	C 	0.393	0.5994	0.175	0.01
Mof_H 	H 	0.4101	0.573	0.2307	-0.008
Mof_C 	C 	0.174	0.524	0.119	-0.027
Mof_H 	H 	0.2108	0.5085	0.1461	-0
Mof_C 	C 	0.4803	0.8314	0.326	0.006
Mof_H 	H 	0.4707	0.8094	0.3852	-0.002
Mof_C 	C 	0.0503	0.9914	0.068	0.021
Mof_H 	H 	0.0847	0.9863	0.1141	-0.013
Mof_Ag	Ag	0.23597	0.42324	0.4282	0.435
Mof_N 	N 	0.0779	0.458	0.648	-0.168
Mof_N 	N 	0.0016	0.0326	0.593	-0.194
Mof_N 	N 	0.4177	0.3452	0.659	-0.184
Mof_N 	N 	0.163	0.451	0.518	-0.168
Mof_N 	N 	0.3147	0.3838	0.538	-0.17
Mof_C 	C 	0.1098	0.4336	0.483	-0.008
Mof_H 	H 	0.101	0.4168	0.4146	0.006
Mof_C 	C 	0.4731	0.098	0.819	-0.013
Mof_H 	H 	0.4502	0.0765	0.8623	0.017
Mof_C 	C 	0.3419	0.423	0.612	-0.012
Mof_H 	H 	0.3275	0.4641	0.6227	-0.002
Mof_C 	C 	0.3334	0.325	0.529	-0.001
Mof_H 	H 	0.3127	0.2961	0.481	-0.004
Mof_C 	C 	0.0658	0.439	0.547	-0.003
Mof_H 	H 	0.0278	0.4302	0.5176	-0.002
Mof_C 	C 	0.3876	0.304	0.594	-0.006
Mof_H 	H 	0.4006	0.262	0.5891	0.005
Mof_C 	C 	0.131	0.476	0.68	0.02
Mof_H 	H 	0.1404	0.4901	0.7505	-0.014
Mof_C 	C 	0.9504	0.0239	0.528	0.028
Mof_H 	H 	0.9162	0.0398	0.5474	-0.008
Mof_C 	C 	0.0249	0.3001	0.677	-0.028
Mof_H 	H 	0.0423	0.3223	0.626	0.016
Mof_C 	C 	0.0233	0.227	0.682	0.02
Mof_H 	H 	0.0405	0.2032	0.6326	-0.01
Mof_C 	C 	0.393	0.4006	0.675	0.01
Mof_H 	H 	0.4101	0.427	0.7307	-0.008
Mof_C 	C 	0.174	0.476	0.619	-0.027
Mof_H 	H 	0.2108	0.4915	0.6461	-0
Mof_C 	C 	0.4803	0.1686	0.826	0.006
Mof_H 	H 	0.4707	0.1906	0.8852	-0.002
Mof_C 	C 	0.0503	0.0086	0.568	0.02
Mof_H 	H 	0.0847	0.0137	0.6141	-0.013
Mof_Ag	Ag	0.76403	0.42324	0.0718	0.439
Mof_N 	N 	0.9221	0.458	0.852	-0.159
Mof_N 	N 	0.9984	0.0326	0.907	-0.143
Mof_N 	N 	0.5823	0.3452	0.841	-0.184
Mof_N 	N 	0.837	0.451	0.982	-0.169
Mof_N 	N 	0.6853	0.3838	0.962	-0.17
Mof_C 	C 	0.8902	0.4336	0.017	-0
Mof_H 	H 	0.899	0.4168	0.0854	0.01
Mof_C 	C 	0.5269	0.098	0.681	-0.013
Mof_H 	H 	0.5498	0.0765	0.6377	0.017
Mof_C 	C 	0.6581	0.423	0.888	-0.012
Mof_H 	H 	0.6725	0.4641	0.8773	-0.002
Mof_C 	C 	0.6666	0.325	0.971	-0.002
Mof_H 	H 	0.6873	0.2961	0.019	-0.002
Mof_C 	C 	0.9342	0.439	0.953	-0.004
Mof_H 	H 	0.9722	0.4302	0.9824	0.019
Mof_C 	C 	0.6124	0.304	0.906	-0.005
Mof_H 	H 	0.5994	0.262	0.9109	0.004
Mof_C 	C 	0.869	0.476	0.82	0.02
Mof_H 	H 	0.8596	0.4901	0.7495	-0.011
Mof_C 	C 	0.0496	0.0239	0.972	-0.055
Mof_H 	H 	0.0838	0.0398	0.9526	0.012
Mof_C 	C 	0.9751	0.3001	0.823	0.003
Mof_H 	H 	0.9577	0.3223	0.874	0.016
Mof_C 	C 	0.9767	0.227	0.818	0.055
Mof_H 	H 	0.9595	0.2032	0.8674	-0.011
Mof_C 	C 	0.607	0.4006	0.825	0.01
Mof_H 	H 	0.5899	0.427	0.7693	-0.008
Mof_C 	C 	0.826	0.476	0.881	-0.024
Mof_H 	H 	0.7892	0.4915	0.8539	-0
Mof_C 	C 	0.5197	0.1686	0.674	0.007
Mof_H 	H 	0.5293	0.1906	0.6148	-0.002
Mof_C 	C 	0.9497	0.0086	0.932	-0.01
Mof_H 	H 	0.9153	0.0137	0.8859	0.003
Mof_Ag	Ag	5.79955e-34	0.913	0.25	0.478
Mof_Ag	Ag	5.79955e-34	0.5544	0.25	0.514
Mof_N 	N 	5.79955e-34	0.803	0.25	-0.207
Mof_N 	N 	5.79955e-34	0.67	0.25	-0.174
Mof_Ag	Ag	1.73987e-33	0.087	0.75	0.477
Mof_Ag	Ag	1.73987e-33	0.4456	0.75	0.514
Mof_N 	N 	1.73987e-33	0.197	0.75	-0.207
Mof_N 	N 	1.73987e-33	0.33	0.75	-0.174
Mof_Ag	Ag	0.5	0.6867	0.25	0.542
Mof_N 	N 	0.5	0.934	0.25	-0.153
Mof_N 	N 	0.5	0.799	0.25	-0.175
Mof_Ag	Ag	0.5	0.3133	0.75	0.542
Mof_N 	N 	0.5	0.066	0.75	-0.153
Mof_N 	N 	0.5	0.201	0.75	-0.175
_end
