data_functionalizedCrystal
_audit_creation_method	'EQeq! by Chris Wilmer'
_symmetry_space_group_name_H-M	'P1'
_symmetry_Int_Tables_number	1
_symmetry_cell_setting	triclinic
loop_
_symmetry_equiv_pos_as_xyz
  x,y,z
_cell_length_a	7.5716
_cell_length_b	9.7891
_cell_length_c	14.6702
_cell_angle_alpha	90
_cell_angle_beta	97.933
_cell_angle_gamma	90
loop_
_atom_site_label
_atom_site_type_symbol
_atom_site_fract_x
_atom_site_fract_y
_atom_site_fract_z
_atom_site_charge
Mof_Tm	Tm	0.84811	0.45571	0.63873	1.814
Mof_Tm	Tm	0.65189	0.95571	0.86127	1.798
Mof_Tm	Tm	0.15189	0.54429	0.36127	1.813
Mof_Tm	Tm	0.34811	0.04429	0.13873	1.797
Mof_H 	H 	0.8312	0.8868	0.6369	-0.03
Mof_H 	H 	0.6126	0.1988	0.4842	-0
Mof_H 	H 	0.7975	0.887	0.3615	-0.019
Mof_H 	H 	0.6688	0.3868	0.8631	-0.033
Mof_H 	H 	0.8874	0.6988	0.0158	-0.002
Mof_H 	H 	0.7025	0.387	0.1385	-0.021
Mof_H 	H 	0.1688	0.1132	0.3631	-0.03
Mof_H 	H 	0.3874	0.8012	0.5158	-0
Mof_H 	H 	0.2025	0.113	0.6385	-0.019
Mof_H 	H 	0.3312	0.6132	0.1369	-0.033
Mof_H 	H 	0.1126	0.3012	0.9842	-0.002
Mof_H 	H 	0.2975	0.613	0.8615	-0.021
Mof_C 	C 	0.7209	0.0588	0.57492	-0.232
Mof_C 	C 	0.6929	0.1396	0.65845	0.488
Mof_C 	C 	0.7991	0.9292	0.5803	0.164
Mof_C 	C 	0.5441	0.4688	0.46012	0.26
Mof_C 	C 	0.6673	0.1136	0.48776	0.138
Mof_C 	C 	0.9127	0.7255	0.50058	0.542
Mof_C 	C 	0.8277	0.8649	0.49876	-0.24
Mof_C 	C 	0.7742	0.9294	0.4154	0.139
Mof_C 	C 	0.7791	0.5588	0.92508	-0.244
Mof_C 	C 	0.8071	0.6396	0.84155	0.492
Mof_C 	C 	0.7009	0.4292	0.9197	0.178
Mof_C 	C 	0.9559	0.9688	0.03988	0.257
Mof_C 	C 	0.8327	0.6136	0.01224	0.145
Mof_C 	C 	0.5873	0.2255	0.99942	0.55
Mof_C 	C 	0.6723	0.3649	0.00124	-0.25
Mof_C 	C 	0.7258	0.4294	0.0846	0.145
Mof_C 	C 	0.2791	0.9412	0.42508	-0.232
Mof_C 	C 	0.3071	0.8604	0.34155	0.488
Mof_C 	C 	0.2009	0.0708	0.4197	0.164
Mof_C 	C 	0.4559	0.5312	0.53988	0.26
Mof_C 	C 	0.3327	0.8864	0.51224	0.138
Mof_C 	C 	0.0873	0.2745	0.49942	0.542
Mof_C 	C 	0.1723	0.1351	0.50124	-0.24
Mof_C 	C 	0.2258	0.0706	0.5846	0.139
Mof_C 	C 	0.2209	0.4412	0.07492	-0.244
Mof_C 	C 	0.1929	0.3604	0.15845	0.492
Mof_C 	C 	0.2991	0.5708	0.0803	0.178
Mof_C 	C 	0.0441	0.0312	0.96012	0.257
Mof_C 	C 	0.1673	0.3864	0.98776	0.145
Mof_C 	C 	0.4127	0.7745	0.00058	0.55
Mof_C 	C 	0.3277	0.6351	0.99876	-0.25
Mof_C 	C 	0.2742	0.5706	0.9154	0.145
Mof_N 	N 	0.6897	0.0514	0.40902	-0.169
Mof_N 	N 	0.8103	0.5514	0.09098	-0.172
Mof_N 	N 	0.3103	0.9486	0.59098	-0.169
Mof_N 	N 	0.1897	0.4486	0.90902	-0.172
Mof_O 	O 	0.7057	0.4361	0.47947	-0.38
Mof_O 	O 	0.6657	0.26786	0.647	-0.489
Mof_O 	O 	0.9059	0.6539	0.57076	-0.536
Mof_O 	O 	0.6981	0.0801	0.73405	-0.514
Mof_O 	O 	0.9834	0.6905	0.43133	-0.545
Mof_O 	O 	0.4471	0.4535	0.38442	-0.386
Mof_O 	O 	0.7943	0.9361	0.02053	-0.376
Mof_O 	O 	0.8343	0.76786	0.853	-0.492
Mof_O 	O 	0.5941	0.1539	0.92924	-0.533
Mof_O 	O 	0.8019	0.5801	0.76595	-0.52
Mof_O 	O 	0.5166	0.1905	0.06867	-0.547
Mof_O 	O 	0.0529	0.9535	0.11558	-0.379
Mof_O 	O 	0.2943	0.5639	0.52053	-0.38
Mof_O 	O 	0.3343	0.73214	0.353	-0.489
Mof_O 	O 	0.0941	0.3461	0.42924	-0.536
Mof_O 	O 	0.3019	0.9199	0.26595	-0.514
Mof_O 	O 	0.0166	0.3095	0.56867	-0.545
Mof_O 	O 	0.5529	0.5465	0.61558	-0.386
Mof_O 	O 	0.2057	0.0639	0.97947	-0.376
Mof_O 	O 	0.1657	0.23214	0.147	-0.492
Mof_O 	O 	0.4059	0.8461	0.07076	-0.533
Mof_O 	O 	0.1981	0.4199	0.23405	-0.52
Mof_O 	O 	0.4834	0.8095	0.93133	-0.547
Mof_O 	O 	0.9471	0.0465	0.88442	-0.379
_end
