data_functionalizedCrystal
_audit_creation_method	'EQeq! by Chris Wilmer'
_symmetry_space_group_name_H-M	'P1'
_symmetry_Int_Tables_number	1
_symmetry_cell_setting	triclinic
loop_
_symmetry_equiv_pos_as_xyz
  x,y,z
_cell_length_a	14.779
_cell_length_b	23.754
_cell_length_c	9.1747
_cell_angle_alpha	90
_cell_angle_beta	90
_cell_angle_gamma	90
loop_
_atom_site_label
_atom_site_type_symbol
_atom_site_fract_x
_atom_site_fract_y
_atom_site_fract_z
_atom_site_charge
Mof_Fe	Fe	0.3233	0.80426	0.12751	1.008
Mof_O 	O 	0.23125	0.86914	0.073	-0.254
Mof_O 	O 	0.01717	0.92908	0.5772	-0.245
Mof_O 	O 	0.91313	0.87481	0.6843	-0.238
Mof_O 	O 	0.13252	0.92698	0.1814	-0.262
Mof_C 	C 	0.18811	0.88773	0.1812	0.263
Mof_C 	C 	0.95627	0.89083	0.5782	0.225
Mof_Cl	Cl	0.18422	0.00396	0.47423	-0.288
Mof_Fe	Fe	0.3233	0.30426	0.62751	1.014
Mof_O 	O 	0.23125	0.36914	0.573	-0.248
Mof_O 	O 	0.01717	0.42908	0.0772	-0.245
Mof_O 	O 	0.91313	0.37481	0.1843	-0.236
Mof_O 	O 	0.13252	0.42698	0.6814	-0.255
Mof_C 	C 	0.18811	0.38773	0.6812	0.264
Mof_C 	C 	0.95627	0.39083	0.0782	0.211
Mof_Cl	Cl	0.18422	0.50396	0.97423	-0.301
Mof_Fe	Fe	0.8233	0.80426	0.62751	1.013
Mof_O 	O 	0.73125	0.86914	0.573	-0.252
Mof_O 	O 	0.51717	0.92908	0.0772	-0.276
Mof_O 	O 	0.41313	0.87481	0.1843	-0.242
Mof_O 	O 	0.63252	0.92698	0.6814	-0.263
Mof_C 	C 	0.68811	0.88773	0.6812	0.263
Mof_C 	C 	0.45627	0.89083	0.0782	0.243
Mof_Cl	Cl	0.68422	0.00396	0.97423	-0.283
Mof_Fe	Fe	0.8233	0.30426	0.12751	1.006
Mof_O 	O 	0.73125	0.36914	0.073	-0.254
Mof_O 	O 	0.51717	0.42908	0.5772	-0.264
Mof_O 	O 	0.41313	0.37481	0.6843	-0.239
Mof_O 	O 	0.63252	0.42698	0.1814	-0.261
Mof_C 	C 	0.68811	0.38773	0.1812	0.262
Mof_C 	C 	0.45627	0.39083	0.5782	0.255
Mof_Cl	Cl	0.68422	0.50396	0.47423	-0.314
Mof_Fe	Fe	0.6767	0.19574	0.12751	1.007
Mof_O 	O 	0.76875	0.13086	0.073	-0.254
Mof_O 	O 	0.98283	0.07092	0.5772	-0.286
Mof_O 	O 	0.08687	0.12519	0.6843	-0.24
Mof_O 	O 	0.86748	0.07302	0.1814	-0.262
Mof_C 	C 	0.81189	0.11227	0.1812	0.263
Mof_C 	C 	0.04373	0.10917	0.5782	0.286
Mof_Cl	Cl	0.81578	0.99604	0.47423	-0.336
Mof_Fe	Fe	0.6767	0.69574	0.62751	1.014
Mof_O 	O 	0.76875	0.63086	0.573	-0.252
Mof_O 	O 	0.98283	0.57092	0.0772	-0.296
Mof_O 	O 	0.08687	0.62519	0.1843	-0.243
Mof_O 	O 	0.86748	0.57302	0.6814	-0.263
Mof_C 	C 	0.81189	0.61227	0.6812	0.263
Mof_C 	C 	0.04373	0.60917	0.0782	0.273
Mof_Cl	Cl	0.81578	0.49604	0.97423	-0.304
Mof_Fe	Fe	0.1767	0.19574	0.62751	1.015
Mof_O 	O 	0.26875	0.13086	0.573	-0.249
Mof_O 	O 	0.48283	0.07092	0.0772	-0.266
Mof_O 	O 	0.58687	0.12519	0.1843	-0.237
Mof_O 	O 	0.36748	0.07302	0.6814	-0.255
Mof_C 	C 	0.31189	0.11227	0.6812	0.264
Mof_C 	C 	0.54373	0.10917	0.0782	0.241
Mof_Cl	Cl	0.31578	0.99604	0.97423	-0.325
Mof_Fe	Fe	0.1767	0.69574	0.12751	1.008
Mof_O 	O 	0.26875	0.63086	0.073	-0.254
Mof_O 	O 	0.48283	0.57092	0.5772	-0.264
Mof_O 	O 	0.58687	0.62519	0.6843	-0.239
Mof_O 	O 	0.36748	0.57302	0.1814	-0.261
Mof_C 	C 	0.31189	0.61227	0.1812	0.263
Mof_C 	C 	0.54373	0.60917	0.5782	0.254
Mof_Cl	Cl	0.31578	0.49604	0.47423	-0.31
Mof_Fe	Fe	0.5733	0.44574	0.37751	1.013
Mof_O 	O 	0.48125	0.38086	0.323	-0.25
Mof_O 	O 	0.26717	0.32092	0.8272	-0.263
Mof_O 	O 	0.16313	0.37519	0.9343	-0.233
Mof_O 	O 	0.38252	0.32302	0.4314	-0.258
Mof_C 	C 	0.43811	0.36227	0.4312	0.262
Mof_C 	C 	0.20627	0.35917	0.8282	0.255
Mof_Cl	Cl	0.43422	0.24604	0.72423	-0.309
Mof_Fe	Fe	0.5733	0.94574	0.87751	0.993
Mof_O 	O 	0.48125	0.88086	0.823	-0.251
Mof_O 	O 	0.26717	0.82092	0.3272	-0.264
Mof_O 	O 	0.16313	0.87519	0.4343	-0.237
Mof_O 	O 	0.38252	0.82302	0.9314	-0.252
Mof_C 	C 	0.43811	0.86227	0.9312	0.273
Mof_C 	C 	0.20627	0.85917	0.3282	0.253
Mof_Cl	Cl	0.43422	0.74604	0.22423	-0.315
Mof_Fe	Fe	0.0733	0.44574	0.87751	1.032
Mof_O 	O 	0.98125	0.38086	0.823	-0.269
Mof_O 	O 	0.76717	0.32092	0.3272	-0.266
Mof_O 	O 	0.66313	0.37519	0.4343	-0.241
Mof_O 	O 	0.88252	0.32302	0.9314	-0.258
Mof_C 	C 	0.93811	0.36227	0.9312	0.281
Mof_C 	C 	0.70627	0.35917	0.3282	0.254
Mof_Cl	Cl	0.93422	0.24604	0.22423	-0.329
Mof_Fe	Fe	0.0733	0.94574	0.37751	0.995
Mof_O 	O 	0.98125	0.88086	0.323	-0.268
Mof_O 	O 	0.76717	0.82092	0.8272	-0.265
Mof_O 	O 	0.66313	0.87519	0.9343	-0.238
Mof_O 	O 	0.88252	0.82302	0.4314	-0.265
Mof_C 	C 	0.93811	0.86227	0.4312	0.268
Mof_C 	C 	0.70627	0.85917	0.8282	0.252
Mof_Cl	Cl	0.93422	0.74604	0.72423	-0.323
Mof_Fe	Fe	0.9267	0.05426	0.37751	0.998
Mof_O 	O 	0.01875	0.11914	0.323	-0.232
Mof_O 	O 	0.23283	0.17908	0.8272	-0.261
Mof_O 	O 	0.33687	0.12481	0.9343	-0.234
Mof_O 	O 	0.11748	0.17698	0.4314	-0.252
Mof_C 	C 	0.06189	0.13773	0.4312	0.256
Mof_C 	C 	0.29373	0.14083	0.8282	0.255
Mof_Cl	Cl	0.06578	0.25396	0.72423	-0.294
Mof_Fe	Fe	0.9267	0.55426	0.87751	0.994
Mof_O 	O 	0.01875	0.61914	0.823	-0.233
Mof_O 	O 	0.23283	0.67908	0.3272	-0.263
Mof_O 	O 	0.33687	0.62481	0.4343	-0.239
Mof_O 	O 	0.11748	0.67698	0.9314	-0.247
Mof_C 	C 	0.06189	0.63773	0.9312	0.266
Mof_C 	C 	0.29373	0.64083	0.3282	0.254
Mof_Cl	Cl	0.06578	0.75396	0.22423	-0.301
Mof_Fe	Fe	0.4267	0.05426	0.87751	1.034
Mof_O 	O 	0.51875	0.11914	0.823	-0.251
Mof_O 	O 	0.73283	0.17908	0.3272	-0.264
Mof_O 	O 	0.83687	0.12481	0.4343	-0.24
Mof_O 	O 	0.61748	0.17698	0.9314	-0.253
Mof_C 	C 	0.56189	0.13773	0.9312	0.274
Mof_C 	C 	0.79373	0.14083	0.3282	0.254
Mof_Cl	Cl	0.56578	0.25396	0.22423	-0.314
Mof_Fe	Fe	0.4267	0.55426	0.37751	1.014
Mof_O 	O 	0.51875	0.61914	0.323	-0.251
Mof_O 	O 	0.73283	0.67908	0.8272	-0.264
Mof_O 	O 	0.83687	0.62481	0.9343	-0.239
Mof_O 	O 	0.61748	0.67698	0.4314	-0.259
Mof_C 	C 	0.56189	0.63773	0.4312	0.263
Mof_C 	C 	0.79373	0.64083	0.8282	0.253
Mof_Cl	Cl	0.56578	0.75396	0.72423	-0.309
Mof_O 	O 	7.10849e-34	-9.79686e-34	0.3054	-0.38
Mof_O 	O 	5.79339e-33	0.5	0.8054	-0.397
Mof_O 	O 	0.5	0	0.8054	-0.398
Mof_O 	O 	0.5	0.5	0.3054	-0.416
Mof_O 	O 	0.25	0.25	0.5554	-0.414
Mof_O 	O 	0.25	0.75	0.0554	-0.416
Mof_O 	O 	0.75	0.25	0.0554	-0.417
Mof_O 	O 	0.75	0.75	0.5554	-0.416
_end
