data_functionalizedCrystal
_audit_creation_method	'EQeq! by Chris Wilmer'
_symmetry_space_group_name_H-M	'P1'
_symmetry_Int_Tables_number	1
_symmetry_cell_setting	triclinic
loop_
_symmetry_equiv_pos_as_xyz
  x,y,z
_cell_length_a	12.6205
_cell_length_b	16.5583
_cell_length_c	16.5583
_cell_angle_alpha	66.2229
_cell_angle_beta	75.2821
_cell_angle_gamma	104.718
loop_
_atom_site_label
_atom_site_type_symbol
_atom_site_fract_x
_atom_site_fract_y
_atom_site_fract_z
_atom_site_charge
Mof_Ba	Ba	0.29397	0.29397	0.41206	1.855
Mof_Ba	Ba	4.05555e-17	0.70603	0.70603	1.751
Mof_Ba	Ba	0.70603	0.41206	0.29397	1.873
Mof_Ba	Ba	0.29397	0.58794	0.70603	1.863
Mof_Ba	Ba	0.70603	0.70603	0.58794	1.881
Mof_Ba	Ba	1.01389e-17	0.29397	0.29397	1.743
Mof_Co	Co	0.26836	0.38167	-0	1.12
Mof_Co	Co	0.73164	0.61833	-0	1.124
Mof_Co	Co	0.11331	0.38167	0.61833	1.114
Mof_Co	Co	0.26836	0	0.61833	1.123
Mof_Co	Co	0.73164	4.05555e-17	0.38167	1.128
Mof_Co	Co	0.88669	0.61833	0.38167	1.154
Mof_H 	H 	0.9641	0.9398	0.835	0.189
Mof_H 	H 	0.0359	0.835	0.9398	0.007
Mof_H 	H 	0.1303	0.6306	0.5807	0.386
Mof_H 	H 	0.2155	0.7989	0.1492	0.052
Mof_H 	H 	0.524	0.804	0.546	0.408
Mof_H 	H 	0.4166	0.0519	0.7989	0.066
Mof_H 	H 	0.9757	0.7748	0.0602	0.032
Mof_H 	H 	0.7991	0.7748	0.165	0.054
Mof_H 	H 	0.524	0.454	0.196	0.405
Mof_H 	H 	0.3647	0.9481	0.8508	0.089
Mof_H 	H 	0.28	0.804	0.65	0.406
Mof_H 	H 	0.5584	0.2007	0.0491	0.056
Mof_H 	H 	0.6075	0.0491	0.7502	0.057
Mof_H 	H 	0.93	0.454	0.35	0.424
Mof_H 	H 	0.2009	0.165	0.7748	0.055
Mof_H 	H 	0.5834	0.9481	0.2011	0.084
Mof_H 	H 	0.7991	0.835	0.2252	0.057
Mof_H 	H 	0.3925	0.7502	0.0491	0.059
Mof_H 	H 	0.711	0.5807	0.7887	0.397
Mof_H 	H 	0.7845	0.1492	0.7989	0.055
Mof_H 	H 	0.3647	0.1492	0.0519	0.062
Mof_H 	H 	0.8697	0.3694	0.4193	0.403
Mof_H 	H 	0.4166	0.2011	0.9481	0.093
Mof_H 	H 	0.9757	0.9398	0.2252	0.046
Mof_H 	H 	0.3577	0.7993	0.2498	0.047
Mof_H 	H 	0.6075	0.2498	0.9509	0.089
Mof_H 	H 	0.8697	0.5807	0.6306	0.403
Mof_H 	H 	0.7845	0.2011	0.8508	0.06
Mof_H 	H 	0.4416	0.7993	0.9509	0.089
Mof_H 	H 	0.476	0.196	0.454	0.404
Mof_H 	H 	0.07	0.35	0.454	0.382
Mof_H 	H 	0.289	0.7887	0.5807	0.395
Mof_H 	H 	0.6353	0.0519	0.1492	0.061
Mof_H 	H 	0.0359	0.0602	0.165	-0.024
Mof_H 	H 	0.2155	0.8508	0.2011	0.056
Mof_H 	H 	0.28	0.35	0.196	0.402
Mof_H 	H 	0.4997	0.3694	0.2113	0.395
Mof_H 	H 	0.3925	0.9509	0.2498	0.076
Mof_H 	H 	0.6423	0.2007	0.7502	0.047
Mof_H 	H 	0.476	0.546	0.804	0.408
Mof_H 	H 	0.4416	0.0491	0.2007	0.053
Mof_H 	H 	0.5584	0.9509	0.7993	0.079
Mof_H 	H 	0.4997	0.7887	0.6306	0.399
Mof_H 	H 	0.0243	0.2252	0.9398	0.129
Mof_H 	H 	0.2009	0.2252	0.835	0.058
Mof_H 	H 	0.07	0.546	0.65	0.382
Mof_H 	H 	0.93	0.65	0.546	0.424
Mof_H 	H 	0.289	0.4193	0.2113	0.391
Mof_H 	H 	0.72	0.65	0.804	0.407
Mof_H 	H 	0.1303	0.4193	0.3694	0.386
Mof_H 	H 	0.5003	0.2113	0.3694	0.394
Mof_H 	H 	0.711	0.2113	0.4193	0.393
Mof_H 	H 	0.3577	0.7502	0.2007	0.046
Mof_H 	H 	0.0243	0.0602	0.7748	0.113
Mof_H 	H 	0.5003	0.6306	0.7887	0.399
Mof_H 	H 	0.72	0.196	0.35	0.402
Mof_H 	H 	0.6423	0.2498	0.7993	0.048
Mof_H 	H 	0.6353	0.8508	0.9481	0.103
Mof_H 	H 	0.9641	0.165	0.0602	0.155
Mof_H 	H 	0.5834	0.7989	0.0519	0.071
Mof_C 	C 	0.41555	0.73185	-0	-0.137
Mof_C 	C 	0.68905	0.59471	0.31476	0.367
Mof_C 	C 	0.8326	0.2125	0.7875	-0.104
Mof_C 	C 	0.12865	2.02777e-17	0.29965	0.019
Mof_C 	C 	0.7964	0.77565	0.22435	-0.098
Mof_C 	C 	0.3799	0	0.7875	-0.168
Mof_C 	C 	0.58445	0.26815	-0	-0.131
Mof_C 	C 	0.41904	0.29908	0.09216	0.349
Mof_C 	C 	0.00381	0.90947	0.68524	0.237
Mof_C 	C 	0.47545	0.29155	-0	-0.148
Mof_C 	C 	0.11996	0.60876	0.29908	0.357
Mof_C 	C 	0.90566	0.90947	0.40529	0.461
Mof_C 	C 	0.97925	0	0.22435	0.023
Mof_C 	C 	0.6837	0.26815	0.73185	-0.068
Mof_C 	C 	0.4283	0.29965	0.70035	0.017
Mof_C 	C 	0.58445	0	0.73185	-0.114
Mof_C 	C 	0.58096	0.70092	0.90784	0.374
Mof_C 	C 	0.0042	0.6891	-0	-0.359
Mof_C 	C 	0.6201	-2.02777e-17	0.2125	-0.17
Mof_C 	C 	0.52455	0.70845	-0	-0.144
Mof_C 	C 	0.00381	0.31476	0.09053	0.228
Mof_C 	C 	0.5717	0.70035	0.29965	0.016
Mof_C 	C 	0.87135	0.29965	-0	-0.018
Mof_C 	C 	0.02075	0.22435	-0	-0.351
Mof_C 	C 	0.1839	0.70845	0.29155	-0.155
Mof_C 	C 	0.9958	0.3109	-0	-0.027
Mof_C 	C 	0.8161	0.29155	0.70845	-0.147
Mof_C 	C 	0.3151	0.3109	0.6891	-0.183
Mof_C 	C 	0.4888	0.60876	0.09216	0.348
Mof_C 	C 	0.09434	0.40529	0.90947	0.318
Mof_C 	C 	0.68905	0.68524	0.40529	0.368
Mof_C 	C 	0.87135	0	0.70035	-0.013
Mof_C 	C 	0.41904	0.90784	0.70092	0.371
Mof_C 	C 	0.3163	0.73185	0.26815	-0.067
Mof_C 	C 	0.99619	0.09053	0.31476	0.506
Mof_C 	C 	0.3799	0.2125	-0	-0.185
Mof_C 	C 	0.47545	0	0.70845	-0.147
Mof_C 	C 	0.11996	0.70092	0.39124	0.358
Mof_C 	C 	0.0042	2.02777e-17	0.3109	-0.355
Mof_C 	C 	0.88004	0.39124	0.70092	0.352
Mof_C 	C 	0.97925	0.77565	-0	0.014
Mof_C 	C 	0.5112	0.39124	0.90784	0.375
Mof_C 	C 	0.31095	0.31476	0.59471	0.369
Mof_C 	C 	0.9958	0	0.6891	-0.01
Mof_C 	C 	0.58096	0.09216	0.29908	0.349
Mof_C 	C 	0.90566	0.59471	0.09053	0.439
Mof_C 	C 	0.12865	0.70035	-0	0.019
Mof_C 	C 	0.41555	0	0.26815	-0.118
Mof_C 	C 	0.88004	0.29908	0.60876	0.351
Mof_C 	C 	0.2036	0.22435	0.77565	-0.121
Mof_C 	C 	0.5112	0.09216	0.60876	0.35
Mof_C 	C 	0.02075	0	0.77565	-0.36
Mof_C 	C 	0.31095	0.40529	0.68524	0.37
Mof_C 	C 	0.52455	0	0.29155	-0.148
Mof_C 	C 	0.1674	0.7875	0.2125	-0.13
Mof_C 	C 	0.4888	0.90784	0.39124	0.37
Mof_C 	C 	0.6849	0.6891	0.3109	-0.184
Mof_C 	C 	0.09434	0.09053	0.59471	0.288
Mof_C 	C 	0.99619	0.68524	0.90947	0.54
Mof_C 	C 	0.6201	0.7875	-0	-0.189
Mof_O 	O 	0.92053	0.31864	0.14505	-0.354
Mof_O 	O 	0.21638	0.31514	0.5812	-0.557
Mof_O 	O 	0.32502	0.89873	0.68347	-0.492
Mof_O 	O 	0.61536	0.4358	0.85052	-0.344
Mof_O 	O 	0.06558	0.14505	0.53631	-0.429
Mof_O 	O 	0.57371	0.5822	0.10127	-0.502
Mof_O 	O 	0.53412	0.71368	0.85052	-0.345
Mof_O 	O 	0.79758	0.89634	0.4188	-0.562
Mof_O 	O 	0.60189	0.68136	0.46369	-0.433
Mof_O 	O 	0.10922	0.36119	0.40033	-1.023
Mof_O 	O 	0.06558	0.46369	0.85495	-0.427
Mof_O 	O 	0.93442	0.53631	0.14505	-0.431
Mof_O 	O 	0.67498	0.10127	0.31653	-0.499
Mof_O 	O 	0.39811	0.46369	0.68136	-0.433
Mof_O 	O 	0.67498	0.68347	0.89873	-0.485
Mof_O 	O 	0.25197	0.76152	0.63881	-1.031
Mof_O 	O 	0.50955	0.76152	0.59967	-1.042
Mof_O 	O 	0.09876	0.89634	0.68486	-0.507
Mof_O 	O 	0.92053	0.85495	0.68136	-0.343
Mof_O 	O 	0.53412	0.14948	0.28632	-0.349
Mof_O 	O 	0.90124	0.68486	0.89634	-0.555
Mof_O 	O 	0.82044	0.28632	0.5642	-0.338
Mof_O 	O 	0.38464	0.85052	0.4358	-0.349
Mof_O 	O 	0.50955	0.40033	0.23848	-1.038
Mof_O 	O 	0.89078	0.40033	0.36119	-1.027
Mof_O 	O 	0.17956	0.5642	0.28632	-0.357
Mof_O 	O 	0.42629	0.10127	0.5822	-0.503
Mof_O 	O 	0.99151	0.31653	0.5822	-0.463
Mof_O 	O 	0.09876	0.31514	0.10366	-0.52
Mof_O 	O 	0.46588	0.28632	0.14948	-0.349
Mof_O 	O 	0.78362	0.68486	0.4188	-0.542
Mof_O 	O 	0.38464	0.5642	0.14948	-0.349
Mof_O 	O 	0.00849	0.5822	0.31653	-0.535
Mof_O 	O 	0.07947	0.68136	0.85495	-0.494
Mof_O 	O 	0.90124	0.10366	0.31514	-0.566
Mof_O 	O 	0.60189	0.53631	0.31864	-0.432
Mof_O 	O 	0.20242	0.10366	0.5812	-0.531
Mof_O 	O 	0.99151	0.4178	0.68347	-0.461
Mof_O 	O 	0.49045	0.59967	0.76152	-1.042
Mof_O 	O 	0.93442	0.85495	0.46369	-0.427
Mof_O 	O 	0.42629	0.4178	0.89873	-0.492
Mof_O 	O 	0.39811	0.31864	0.53631	-0.433
Mof_O 	O 	0.46588	0.85052	0.71368	-0.345
Mof_O 	O 	0.89078	0.63881	0.59967	-1.027
Mof_O 	O 	0.20242	0.4188	0.89634	-0.522
Mof_O 	O 	0.21638	0.4188	0.68486	-0.558
Mof_O 	O 	0.78362	0.5812	0.31514	-0.542
Mof_O 	O 	0.61536	0.14948	0.5642	-0.345
Mof_O 	O 	0.49045	0.23848	0.40033	-1.038
Mof_O 	O 	0.32502	0.31653	0.10127	-0.504
Mof_O 	O 	0.82044	0.4358	0.71368	-0.336
Mof_O 	O 	0.74803	0.63881	0.76152	-1.022
Mof_O 	O 	0.74803	0.23848	0.36119	-1.019
Mof_O 	O 	0.25197	0.36119	0.23848	-1.028
Mof_O 	O 	0.57371	0.89873	0.4178	-0.493
Mof_O 	O 	0.07947	0.14505	0.31864	-0.493
Mof_O 	O 	0.00849	0.68347	0.4178	-0.535
Mof_O 	O 	0.79758	0.5812	0.10366	-0.571
Mof_O 	O 	0.10922	0.59967	0.63881	-1.023
Mof_O 	O 	0.17956	0.71368	0.4358	-0.355
_end
