data_functionalizedCrystal
_audit_creation_method	'EQeq! by Chris Wilmer'
_symmetry_space_group_name_H-M	'P1'
_symmetry_Int_Tables_number	1
_symmetry_cell_setting	triclinic
loop_
_symmetry_equiv_pos_as_xyz
  x,y,z
_cell_length_a	24.218
_cell_length_b	24.218
_cell_length_c	15.359
_cell_angle_alpha	90
_cell_angle_beta	90
_cell_angle_gamma	90
loop_
_atom_site_label
_atom_site_type_symbol
_atom_site_fract_x
_atom_site_fract_y
_atom_site_fract_z
_atom_site_charge
Mof_O 	O 	0.05458	0.3514	0.5851	-0.657
Mof_O 	O 	0.10225	0.41728	0.6612	-0.768
Mof_C 	C 	0.16817	0.23248	0.6663	0.152
Mof_C 	C 	0.13176	0.27219	0.6348	-0.13
Mof_H 	H 	0.1074	0.2634	0.5884	0.077
Mof_C 	C 	0.13112	0.32467	0.6714	-0.061
Mof_C 	C 	0.20312	0.2979	0.7707	0.14
Mof_C 	C 	0.20383	0.24539	0.7342	-0.102
Mof_C 	C 	0.16675	0.33758	0.7393	-0.128
Mof_H 	H 	0.1663	0.3735	0.7643	0.043
Mof_C 	C 	0.17	0.17511	0.6282	-0.49
Mof_H 	H 	0.1415	0.1522	0.6555	0.15
Mof_H 	H 	0.2064	0.1588	0.639	0.157
Mof_H 	H 	0.1634	0.177	0.5653	0.143
Mof_C 	C 	0.09181	0.368	0.6378	0.474
Mof_C 	C 	0.2429	0.3091	0.8442	-0.476
Mof_H 	H 	0.2388	0.2806	0.889	0.153
Mof_H 	H 	0.235	0.3454	0.8695	0.133
Mof_H 	H 	0.2808	0.3086	0.8218	0.141
Mof_O 	O 	0.94542	0.6486	0.5851	-0.644
Mof_O 	O 	0.89775	0.58272	0.6612	-0.763
Mof_C 	C 	0.83183	0.76752	0.6663	0.161
Mof_C 	C 	0.86824	0.72781	0.6348	-0.136
Mof_H 	H 	0.8926	0.7366	0.5884	0.084
Mof_C 	C 	0.86888	0.67533	0.6714	-0.054
Mof_C 	C 	0.79688	0.7021	0.7707	0.144
Mof_C 	C 	0.79617	0.75461	0.7342	-0.105
Mof_C 	C 	0.83325	0.66242	0.7393	-0.131
Mof_H 	H 	0.8337	0.6265	0.7643	0.046
Mof_C 	C 	0.83	0.82489	0.6282	-0.508
Mof_H 	H 	0.8585	0.8478	0.6555	0.162
Mof_H 	H 	0.7936	0.8412	0.639	0.166
Mof_H 	H 	0.8366	0.823	0.5653	0.151
Mof_C 	C 	0.90819	0.632	0.6378	0.472
Mof_C 	C 	0.7571	0.6909	0.8442	-0.479
Mof_H 	H 	0.7612	0.7194	0.889	0.153
Mof_H 	H 	0.765	0.6546	0.8695	0.134
Mof_H 	H 	0.7192	0.6914	0.8218	0.142
Mof_O 	O 	0.6486	0.05458	0.0851	-0.666
Mof_O 	O 	0.58272	0.10225	0.1612	-0.773
Mof_C 	C 	0.76752	0.16817	0.1663	0.143
Mof_C 	C 	0.72781	0.13176	0.1348	-0.125
Mof_H 	H 	0.7366	0.1074	0.0884	0.07
Mof_C 	C 	0.67533	0.13112	0.1714	-0.069
Mof_C 	C 	0.7021	0.20312	0.2707	0.13
Mof_C 	C 	0.75461	0.20383	0.2342	-0.097
Mof_C 	C 	0.66242	0.16675	0.2393	-0.122
Mof_H 	H 	0.6265	0.1663	0.2643	0.038
Mof_C 	C 	0.82489	0.17	0.1282	-0.477
Mof_H 	H 	0.8478	0.1415	0.1555	0.146
Mof_H 	H 	0.8412	0.2064	0.139	0.153
Mof_H 	H 	0.823	0.1634	0.0653	0.132
Mof_C 	C 	0.632	0.09181	0.1378	0.476
Mof_C 	C 	0.6909	0.2429	0.3442	-0.458
Mof_H 	H 	0.7194	0.2388	0.389	0.143
Mof_H 	H 	0.6546	0.235	0.3695	0.123
Mof_H 	H 	0.6914	0.2808	0.3218	0.133
Mof_O 	O 	0.3514	0.94542	0.0851	-0.649
Mof_O 	O 	0.41728	0.89775	0.1612	-0.766
Mof_C 	C 	0.23248	0.83183	0.1663	0.148
Mof_C 	C 	0.27219	0.86824	0.1348	-0.128
Mof_H 	H 	0.2634	0.8926	0.0884	0.076
Mof_C 	C 	0.32467	0.86888	0.1714	-0.062
Mof_C 	C 	0.2979	0.79688	0.2707	0.135
Mof_C 	C 	0.24539	0.79617	0.2342	-0.1
Mof_C 	C 	0.33758	0.83325	0.2393	-0.125
Mof_H 	H 	0.3735	0.8337	0.2643	0.041
Mof_C 	C 	0.17511	0.83	0.1282	-0.482
Mof_H 	H 	0.1522	0.8585	0.1555	0.149
Mof_H 	H 	0.1588	0.7936	0.139	0.153
Mof_H 	H 	0.177	0.8366	0.0653	0.136
Mof_C 	C 	0.368	0.90819	0.1378	0.474
Mof_C 	C 	0.3091	0.7571	0.3442	-0.463
Mof_H 	H 	0.2806	0.7612	0.389	0.145
Mof_H 	H 	0.3454	0.765	0.3695	0.125
Mof_H 	H 	0.3086	0.7192	0.3218	0.135
Mof_O 	O 	0.94542	0.3514	0.4149	-0.645
Mof_O 	O 	0.89775	0.41728	0.3388	-0.766
Mof_C 	C 	0.83183	0.23248	0.3337	0.154
Mof_C 	C 	0.86824	0.27219	0.3652	-0.131
Mof_H 	H 	0.8926	0.2634	0.4116	0.081
Mof_C 	C 	0.86888	0.32467	0.3286	-0.06
Mof_C 	C 	0.79688	0.2979	0.2293	0.132
Mof_C 	C 	0.79617	0.24539	0.2658	-0.102
Mof_C 	C 	0.83325	0.33758	0.2607	-0.125
Mof_H 	H 	0.8337	0.3735	0.2357	0.039
Mof_C 	C 	0.83	0.17511	0.3718	-0.495
Mof_H 	H 	0.8585	0.1522	0.3445	0.154
Mof_H 	H 	0.7936	0.1588	0.361	0.159
Mof_H 	H 	0.8366	0.177	0.4347	0.145
Mof_C 	C 	0.90819	0.368	0.3622	0.473
Mof_C 	C 	0.7571	0.3091	0.1558	-0.453
Mof_H 	H 	0.7612	0.2806	0.111	0.137
Mof_H 	H 	0.765	0.3454	0.1305	0.118
Mof_H 	H 	0.7192	0.3086	0.1782	0.13
Mof_O 	O 	0.05458	0.6486	0.4149	-0.658
Mof_O 	O 	0.10225	0.58272	0.3388	-0.772
Mof_C 	C 	0.16817	0.76752	0.3337	0.152
Mof_C 	C 	0.13176	0.72781	0.3652	-0.13
Mof_H 	H 	0.1074	0.7366	0.4116	0.077
Mof_C 	C 	0.13112	0.67533	0.3286	-0.065
Mof_C 	C 	0.20312	0.7021	0.2293	0.129
Mof_C 	C 	0.20383	0.75461	0.2658	-0.1
Mof_C 	C 	0.16675	0.66242	0.2607	-0.123
Mof_H 	H 	0.1663	0.6265	0.2357	0.037
Mof_C 	C 	0.17	0.82489	0.3718	-0.495
Mof_H 	H 	0.1415	0.8478	0.3445	0.154
Mof_H 	H 	0.2064	0.8412	0.361	0.162
Mof_H 	H 	0.1634	0.823	0.4347	0.146
Mof_C 	C 	0.09181	0.632	0.3622	0.474
Mof_C 	C 	0.2429	0.6909	0.1558	-0.451
Mof_H 	H 	0.2388	0.7194	0.111	0.137
Mof_H 	H 	0.235	0.6546	0.1305	0.117
Mof_H 	H 	0.2808	0.6914	0.1782	0.13
Mof_O 	O 	0.3514	0.05458	0.9149	-0.646
Mof_O 	O 	0.41728	0.10225	0.8388	-0.764
Mof_C 	C 	0.23248	0.16817	0.8337	0.162
Mof_C 	C 	0.27219	0.13176	0.8652	-0.136
Mof_H 	H 	0.2634	0.1074	0.9116	0.085
Mof_C 	C 	0.32467	0.13112	0.8286	-0.056
Mof_C 	C 	0.2979	0.20312	0.7293	0.139
Mof_C 	C 	0.24539	0.20383	0.7658	-0.105
Mof_C 	C 	0.33758	0.16675	0.7607	-0.129
Mof_H 	H 	0.3735	0.1663	0.7357	0.042
Mof_C 	C 	0.17511	0.17	0.8718	-0.508
Mof_H 	H 	0.1522	0.1415	0.8445	0.157
Mof_H 	H 	0.1588	0.2064	0.861	0.166
Mof_H 	H 	0.177	0.1634	0.9347	0.157
Mof_C 	C 	0.368	0.09181	0.8622	0.472
Mof_C 	C 	0.3091	0.2429	0.6558	-0.467
Mof_H 	H 	0.2806	0.2388	0.611	0.145
Mof_H 	H 	0.3454	0.235	0.6305	0.126
Mof_H 	H 	0.3086	0.2808	0.6782	0.137
Mof_O 	O 	0.6486	0.94542	0.9149	-0.638
Mof_O 	O 	0.58272	0.89775	0.8388	-0.761
Mof_C 	C 	0.76752	0.83183	0.8337	0.168
Mof_C 	C 	0.72781	0.86824	0.8652	-0.139
Mof_H 	H 	0.7366	0.8926	0.9116	0.088
Mof_C 	C 	0.67533	0.86888	0.8286	-0.051
Mof_C 	C 	0.7021	0.79688	0.7293	0.142
Mof_C 	C 	0.75461	0.79617	0.7658	-0.107
Mof_C 	C 	0.66242	0.83325	0.7607	-0.131
Mof_H 	H 	0.6265	0.8337	0.7357	0.044
Mof_C 	C 	0.82489	0.83	0.8718	-0.521
Mof_H 	H 	0.8478	0.8585	0.8445	0.167
Mof_H 	H 	0.8412	0.7936	0.861	0.172
Mof_H 	H 	0.823	0.8366	0.9347	0.161
Mof_C 	C 	0.632	0.90819	0.8622	0.471
Mof_C 	C 	0.6909	0.7571	0.6558	-0.47
Mof_H 	H 	0.7194	0.7612	0.611	0.147
Mof_H 	H 	0.6546	0.765	0.6305	0.128
Mof_H 	H 	0.6914	0.7192	0.6782	0.138
Mof_O 	O 	0.94542	0.6486	0.4149	-0.645
Mof_O 	O 	0.89775	0.58272	0.3388	-0.766
Mof_C 	C 	0.83183	0.76752	0.3337	0.158
Mof_C 	C 	0.86824	0.72781	0.3652	-0.133
Mof_H 	H 	0.8926	0.7366	0.4116	0.082
Mof_C 	C 	0.86888	0.67533	0.3286	-0.059
Mof_C 	C 	0.79688	0.7021	0.2293	0.133
Mof_C 	C 	0.79617	0.75461	0.2658	-0.103
Mof_C 	C 	0.83325	0.66242	0.2607	-0.126
Mof_H 	H 	0.8337	0.6265	0.2357	0.04
Mof_C 	C 	0.83	0.82489	0.3718	-0.504
Mof_H 	H 	0.8585	0.8478	0.3445	0.16
Mof_H 	H 	0.7936	0.8412	0.361	0.165
Mof_H 	H 	0.8366	0.823	0.4347	0.15
Mof_C 	C 	0.90819	0.632	0.3622	0.473
Mof_C 	C 	0.7571	0.6909	0.1558	-0.455
Mof_H 	H 	0.7612	0.7194	0.111	0.139
Mof_H 	H 	0.765	0.6546	0.1305	0.119
Mof_H 	H 	0.7192	0.6914	0.1782	0.131
Mof_O 	O 	0.05458	0.3514	0.4149	-0.659
Mof_O 	O 	0.10225	0.41728	0.3388	-0.772
Mof_C 	C 	0.16817	0.23248	0.3337	0.148
Mof_C 	C 	0.13176	0.27219	0.3652	-0.127
Mof_H 	H 	0.1074	0.2634	0.4116	0.076
Mof_C 	C 	0.13112	0.32467	0.3286	-0.066
Mof_C 	C 	0.20312	0.2979	0.2293	0.128
Mof_C 	C 	0.20383	0.24539	0.2658	-0.1
Mof_C 	C 	0.16675	0.33758	0.2607	-0.122
Mof_H 	H 	0.1663	0.3735	0.2357	0.037
Mof_C 	C 	0.17	0.17511	0.3718	-0.485
Mof_H 	H 	0.1415	0.1522	0.3445	0.147
Mof_H 	H 	0.2064	0.1588	0.361	0.156
Mof_H 	H 	0.1634	0.177	0.4347	0.141
Mof_C 	C 	0.09181	0.368	0.3622	0.474
Mof_C 	C 	0.2429	0.3091	0.1558	-0.449
Mof_H 	H 	0.2388	0.2806	0.111	0.136
Mof_H 	H 	0.235	0.3454	0.1305	0.116
Mof_H 	H 	0.2808	0.3086	0.1782	0.129
Mof_O 	O 	0.3514	0.94542	0.9149	-0.639
Mof_O 	O 	0.41728	0.89775	0.8388	-0.761
Mof_C 	C 	0.23248	0.83183	0.8337	0.164
Mof_C 	C 	0.27219	0.86824	0.8652	-0.137
Mof_H 	H 	0.2634	0.8926	0.9116	0.087
Mof_C 	C 	0.32467	0.86888	0.8286	-0.053
Mof_C 	C 	0.2979	0.79688	0.7293	0.141
Mof_C 	C 	0.24539	0.79617	0.7658	-0.106
Mof_C 	C 	0.33758	0.83325	0.7607	-0.13
Mof_H 	H 	0.3735	0.8337	0.7357	0.044
Mof_C 	C 	0.17511	0.83	0.8718	-0.511
Mof_H 	H 	0.1522	0.8585	0.8445	0.161
Mof_H 	H 	0.1588	0.7936	0.861	0.167
Mof_H 	H 	0.177	0.8366	0.9347	0.157
Mof_C 	C 	0.368	0.90819	0.8622	0.471
Mof_C 	C 	0.3091	0.7571	0.6558	-0.469
Mof_H 	H 	0.2806	0.7612	0.611	0.147
Mof_H 	H 	0.3454	0.765	0.6305	0.128
Mof_H 	H 	0.3086	0.7192	0.6782	0.138
Mof_O 	O 	0.6486	0.05458	0.9149	-0.646
Mof_O 	O 	0.58272	0.10225	0.8388	-0.764
Mof_C 	C 	0.76752	0.16817	0.8337	0.165
Mof_C 	C 	0.72781	0.13176	0.8652	-0.138
Mof_H 	H 	0.7366	0.1074	0.9116	0.087
Mof_C 	C 	0.67533	0.13112	0.8286	-0.054
Mof_C 	C 	0.7021	0.20312	0.7293	0.139
Mof_C 	C 	0.75461	0.20383	0.7658	-0.106
Mof_C 	C 	0.66242	0.16675	0.7607	-0.13
Mof_H 	H 	0.6265	0.1663	0.7357	0.042
Mof_C 	C 	0.82489	0.17	0.8718	-0.518
Mof_H 	H 	0.8478	0.1415	0.8445	0.164
Mof_H 	H 	0.8412	0.2064	0.861	0.171
Mof_H 	H 	0.823	0.1634	0.9347	0.161
Mof_C 	C 	0.632	0.09181	0.8622	0.472
Mof_C 	C 	0.6909	0.2429	0.6558	-0.467
Mof_H 	H 	0.7194	0.2388	0.611	0.145
Mof_H 	H 	0.6546	0.235	0.6305	0.126
Mof_H 	H 	0.6914	0.2808	0.6782	0.137
Mof_O 	O 	0.05458	0.6486	0.5851	-0.657
Mof_O 	O 	0.10225	0.58272	0.6612	-0.769
Mof_C 	C 	0.16817	0.76752	0.6663	0.155
Mof_C 	C 	0.13176	0.72781	0.6348	-0.132
Mof_H 	H 	0.1074	0.7366	0.5884	0.079
Mof_C 	C 	0.13112	0.67533	0.6714	-0.06
Mof_C 	C 	0.20312	0.7021	0.7707	0.14
Mof_C 	C 	0.20383	0.75461	0.7342	-0.103
Mof_C 	C 	0.16675	0.66242	0.7393	-0.129
Mof_H 	H 	0.1663	0.6265	0.7643	0.043
Mof_C 	C 	0.17	0.82489	0.6282	-0.498
Mof_H 	H 	0.1415	0.8478	0.6555	0.155
Mof_H 	H 	0.2064	0.8412	0.639	0.163
Mof_H 	H 	0.1634	0.823	0.5653	0.147
Mof_C 	C 	0.09181	0.632	0.6378	0.473
Mof_C 	C 	0.2429	0.6909	0.8442	-0.475
Mof_H 	H 	0.2388	0.7194	0.889	0.152
Mof_H 	H 	0.235	0.6546	0.8695	0.132
Mof_H 	H 	0.2808	0.6914	0.8218	0.141
Mof_O 	O 	0.94542	0.3514	0.5851	-0.644
Mof_O 	O 	0.89775	0.41728	0.6612	-0.763
Mof_C 	C 	0.83183	0.23248	0.6663	0.158
Mof_C 	C 	0.86824	0.27219	0.6348	-0.134
Mof_H 	H 	0.8926	0.2634	0.5884	0.082
Mof_C 	C 	0.86888	0.32467	0.6714	-0.055
Mof_C 	C 	0.79688	0.2979	0.7707	0.144
Mof_C 	C 	0.79617	0.24539	0.7342	-0.104
Mof_C 	C 	0.83325	0.33758	0.7393	-0.131
Mof_H 	H 	0.8337	0.3735	0.7643	0.046
Mof_C 	C 	0.83	0.17511	0.6282	-0.499
Mof_H 	H 	0.8585	0.1522	0.6555	0.156
Mof_H 	H 	0.7936	0.1588	0.639	0.161
Mof_H 	H 	0.8366	0.177	0.5653	0.147
Mof_C 	C 	0.90819	0.368	0.6378	0.472
Mof_C 	C 	0.7571	0.3091	0.8442	-0.48
Mof_H 	H 	0.7612	0.2806	0.889	0.155
Mof_H 	H 	0.765	0.3454	0.8695	0.135
Mof_H 	H 	0.7192	0.3086	0.8218	0.143
Mof_O 	O 	0.6486	0.94542	0.0851	-0.649
Mof_O 	O 	0.58272	0.89775	0.1612	-0.765
Mof_C 	C 	0.76752	0.83183	0.1663	0.152
Mof_C 	C 	0.72781	0.86824	0.1348	-0.13
Mof_H 	H 	0.7366	0.8926	0.0884	0.077
Mof_C 	C 	0.67533	0.86888	0.1714	-0.061
Mof_C 	C 	0.7021	0.79688	0.2707	0.135
Mof_C 	C 	0.75461	0.79617	0.2342	-0.101
Mof_C 	C 	0.66242	0.83325	0.2393	-0.126
Mof_H 	H 	0.6265	0.8337	0.2643	0.041
Mof_C 	C 	0.82489	0.83	0.1282	-0.492
Mof_H 	H 	0.8478	0.8585	0.1555	0.155
Mof_H 	H 	0.8412	0.7936	0.139	0.159
Mof_H 	H 	0.823	0.8366	0.0653	0.14
Mof_C 	C 	0.632	0.90819	0.1378	0.474
Mof_C 	C 	0.6909	0.7571	0.3442	-0.463
Mof_H 	H 	0.7194	0.7612	0.389	0.145
Mof_H 	H 	0.6546	0.765	0.3695	0.126
Mof_H 	H 	0.6914	0.7192	0.3218	0.135
Mof_O 	O 	0.3514	0.05458	0.0851	-0.666
Mof_O 	O 	0.41728	0.10225	0.1612	-0.773
Mof_C 	C 	0.23248	0.16817	0.1663	0.139
Mof_C 	C 	0.27219	0.13176	0.1348	-0.122
Mof_H 	H 	0.2634	0.1074	0.0884	0.069
Mof_C 	C 	0.32467	0.13112	0.1714	-0.07
Mof_C 	C 	0.2979	0.20312	0.2707	0.13
Mof_C 	C 	0.24539	0.20383	0.2342	-0.097
Mof_C 	C 	0.33758	0.16675	0.2393	-0.121
Mof_H 	H 	0.3735	0.1663	0.2643	0.038
Mof_C 	C 	0.17511	0.17	0.1282	-0.468
Mof_H 	H 	0.1522	0.1415	0.1555	0.139
Mof_H 	H 	0.1588	0.2064	0.139	0.148
Mof_H 	H 	0.177	0.1634	0.0653	0.128
Mof_C 	C 	0.368	0.09181	0.1378	0.476
Mof_C 	C 	0.3091	0.2429	0.3442	-0.458
Mof_H 	H 	0.2806	0.2388	0.389	0.143
Mof_H 	H 	0.3454	0.235	0.3695	0.123
Mof_H 	H 	0.3086	0.2808	0.3218	0.133
Mof_Zr	Zr	3.99121e-33	0.39854	0.5	3.215
Mof_Zr	Zr	3.99121e-33	0.60146	0.5	3.215
Mof_Zr	Zr	0.60146	0	-0	3.213
Mof_Zr	Zr	0.39854	0	-0	3.213
Mof_Zr	Zr	0.92729	0.5	0.61488	3.179
Mof_Zr	Zr	0.07271	0.5	0.61488	3.178
Mof_Zr	Zr	0.5	0.92729	0.11488	3.179
Mof_Zr	Zr	0.5	0.07271	0.11488	3.178
Mof_Zr	Zr	0.07271	0.5	0.38512	3.178
Mof_Zr	Zr	0.92729	0.5	0.38512	3.179
Mof_Zr	Zr	0.5	0.92729	0.88512	3.18
Mof_Zr	Zr	0.5	0.07271	0.88512	3.18
Mof_O 	O 	9.86493e-33	0.44984	0.6132	-1.359
Mof_O 	O 	-1.34417e-33	0.55016	0.6132	-1.359
Mof_O 	O 	0.55016	0	0.1132	-1.362
Mof_O 	O 	0.44984	0	0.1132	-1.362
Mof_O 	O 	3.72203e-33	0.44984	0.3868	-1.361
Mof_O 	O 	-1.88252e-33	0.55016	0.3868	-1.36
Mof_O 	O 	0.44984	0	0.8868	-1.348
Mof_O 	O 	0.55016	0	0.8868	-1.348
Mof_O 	O 	0.0731	0.45085	0.5	-1.337
Mof_O 	O 	0.9269	0.54915	0.5	-1.329
Mof_O 	O 	0.54915	0.0731	-0	-1.35
Mof_O 	O 	0.45085	0.9269	-0	-1.338
Mof_O 	O 	0.9269	0.45085	0.5	-1.329
Mof_O 	O 	0.0731	0.54915	0.5	-1.337
Mof_O 	O 	0.45085	0.0731	-0	-1.35
Mof_O 	O 	0.54915	0.9269	-0	-1.338
_end
