data_functionalizedCrystal
_audit_creation_method	'EQeq! by Chris Wilmer'
_symmetry_space_group_name_H-M	'P1'
_symmetry_Int_Tables_number	1
_symmetry_cell_setting	triclinic
loop_
_symmetry_equiv_pos_as_xyz
  x,y,z
_cell_length_a	18.742
_cell_length_b	22.8595
_cell_length_c	29.669
_cell_angle_alpha	104.858
_cell_angle_beta	90
_cell_angle_gamma	90
loop_
_atom_site_label
_atom_site_type_symbol
_atom_site_fract_x
_atom_site_fract_y
_atom_site_fract_z
_atom_site_charge
Mof_Cu	Cu	0.80246	0.22112	0.52979	0.908
Mof_Cu	Cu	0.73333	0.31813	0.51514	0.907
Mof_Cu	Cu	0.30749	0.3021	0.50116	0.907
Mof_Cu	Cu	0.24017	0.20595	0.51496	0.905
Mof_Cu	Cu	0.50263	0.49259	0.19473	0.91
Mof_Cu	Cu	0.50034	0.4639	0.27595	0.906
Mof_Cu	Cu	0.30246	0.27888	0.97021	0.908
Mof_Cu	Cu	0.23333	0.18187	0.98486	0.908
Mof_Cu	Cu	0.80749	0.1979	0.99884	0.907
Mof_Cu	Cu	0.74017	0.29405	0.98504	0.905
Mof_Cu	Cu	0.00263	0.00741	0.30527	0.908
Mof_Cu	Cu	0.00034	0.0361	0.22405	0.905
Mof_Cu	Cu	0.19754	0.77888	0.47021	0.908
Mof_Cu	Cu	0.26667	0.68187	0.48486	0.907
Mof_Cu	Cu	0.69251	0.6979	0.49884	0.907
Mof_Cu	Cu	0.75983	0.79405	0.48504	0.905
Mof_Cu	Cu	0.49737	0.50741	0.80527	0.91
Mof_Cu	Cu	0.49966	0.5361	0.72405	0.906
Mof_Cu	Cu	0.69754	0.72112	0.02979	0.908
Mof_Cu	Cu	0.76667	0.81813	0.01514	0.908
Mof_Cu	Cu	0.19251	0.8021	0.00116	0.906
Mof_Cu	Cu	0.25983	0.70595	0.01496	0.904
Mof_Cu	Cu	0.99737	0.99259	0.69473	0.907
Mof_Cu	Cu	0.99966	0.9639	0.77595	0.904
Mof_H 	H 	0.1325	0.8905	0.1428	0.068
Mof_H 	H 	0.1368	0.8556	0.2706	0.096
Mof_H 	H 	0.2356	0.7434	0.1611	0.089
Mof_H 	H 	0.2926	0.7221	0.2189	0.034
Mof_H 	H 	0.222	0.6817	0.2097	0.035
Mof_H 	H 	0.2197	0.7278	0.3222	0.072
Mof_H 	H 	0.3437	0.5944	0.3482	0.052
Mof_H 	H 	0.3343	0.6191	0.2175	0.053
Mof_H 	H 	0.6637	0.3695	0.1244	0.067
Mof_H 	H 	0.7984	0.2429	0.1477	0.095
Mof_H 	H 	0.6792	0.3423	0.2537	0.085
Mof_H 	H 	0.7069	0.265	0.2822	0.035
Mof_H 	H 	0.7707	0.3126	0.2937	0.035
Mof_H 	H 	0.846	0.178	0.2583	0.072
Mof_H 	H 	0.8691	0.1479	0.3864	0.054
Mof_H 	H 	0.7429	0.2836	0.3686	0.054
Mof_H 	H 	0.0224	0.2754	0.5315	0.059
Mof_H 	H 	0.1329	0.4174	0.5083	0.065
Mof_H 	H 	0.9182	0.4242	0.516	0.066
Mof_H 	H 	0.0574	0.5094	0.5287	0.069
Mof_H 	H 	0.0587	0.4804	0.4737	0.069
Mof_H 	H 	0.6322	0.0928	0.5111	0.069
Mof_H 	H 	0.5221	0.2419	0.5063	0.063
Mof_H 	H 	0.4178	0.085	0.499	0.065
Mof_H 	H 	0.5605	0.9981	0.4751	0.069
Mof_H 	H 	0.5533	0.0149	0.5304	0.07
Mof_H 	H 	0.6325	0.6095	0.3572	0.067
Mof_H 	H 	0.6368	0.6444	0.2294	0.096
Mof_H 	H 	0.7356	0.7566	0.3389	0.089
Mof_H 	H 	0.7926	0.7779	0.2811	0.034
Mof_H 	H 	0.722	0.8183	0.2903	0.034
Mof_H 	H 	0.7197	0.7722	0.1778	0.072
Mof_H 	H 	0.8437	0.9056	0.1518	0.052
Mof_H 	H 	0.8343	0.8809	0.2825	0.053
Mof_H 	H 	0.1637	0.1305	0.3756	0.067
Mof_H 	H 	0.2984	0.2571	0.3523	0.094
Mof_H 	H 	0.1792	0.1577	0.2463	0.085
Mof_H 	H 	0.2069	0.235	0.2178	0.034
Mof_H 	H 	0.2707	0.1874	0.2063	0.034
Mof_H 	H 	0.346	0.322	0.2417	0.071
Mof_H 	H 	0.3691	0.3521	0.1136	0.053
Mof_H 	H 	0.2429	0.2164	0.1314	0.054
Mof_H 	H 	0.5224	0.2246	0.9685	0.059
Mof_H 	H 	0.6329	0.0826	0.9917	0.065
Mof_H 	H 	0.4182	0.0758	0.984	0.066
Mof_H 	H 	0.5574	0.9906	0.9713	0.069
Mof_H 	H 	0.5587	0.0196	0.0263	0.069
Mof_H 	H 	0.1322	0.4072	0.9889	0.069
Mof_H 	H 	0.0221	0.2581	0.9937	0.063
Mof_H 	H 	0.9178	0.415	0.001	0.068
Mof_H 	H 	0.0605	0.5019	0.0249	0.068
Mof_H 	H 	0.0533	0.4851	0.9696	0.07
Mof_H 	H 	0.8675	0.1095	0.8572	0.068
Mof_H 	H 	0.8632	0.1444	0.7294	0.096
Mof_H 	H 	0.7644	0.2566	0.8389	0.089
Mof_H 	H 	0.7074	0.2779	0.7811	0.034
Mof_H 	H 	0.778	0.3183	0.7903	0.035
Mof_H 	H 	0.7803	0.2722	0.6778	0.072
Mof_H 	H 	0.6563	0.4056	0.6518	0.052
Mof_H 	H 	0.6657	0.3809	0.7825	0.053
Mof_H 	H 	0.3363	0.6305	0.8756	0.067
Mof_H 	H 	0.2016	0.7571	0.8523	0.095
Mof_H 	H 	0.3208	0.6577	0.7463	0.085
Mof_H 	H 	0.2931	0.735	0.7178	0.035
Mof_H 	H 	0.2293	0.6874	0.7063	0.035
Mof_H 	H 	0.154	0.822	0.7417	0.072
Mof_H 	H 	0.1309	0.8521	0.6136	0.054
Mof_H 	H 	0.2571	0.7164	0.6314	0.054
Mof_H 	H 	0.9776	0.7246	0.4685	0.059
Mof_H 	H 	0.8671	0.5826	0.4917	0.065
Mof_H 	H 	0.0818	0.5758	0.484	0.066
Mof_H 	H 	0.9426	0.4906	0.4713	0.069
Mof_H 	H 	0.9413	0.5196	0.5263	0.069
Mof_H 	H 	0.3678	0.9072	0.4889	0.069
Mof_H 	H 	0.4779	0.7581	0.4937	0.063
Mof_H 	H 	0.5822	0.915	0.501	0.065
Mof_H 	H 	0.4395	0.0019	0.5249	0.069
Mof_H 	H 	0.4467	0.9851	0.4696	0.07
Mof_H 	H 	0.3675	0.3905	0.6428	0.067
Mof_H 	H 	0.3632	0.3556	0.7706	0.096
Mof_H 	H 	0.2644	0.2434	0.6611	0.089
Mof_H 	H 	0.2074	0.2221	0.7189	0.034
Mof_H 	H 	0.278	0.1817	0.7097	0.034
Mof_H 	H 	0.2803	0.2278	0.8222	0.072
Mof_H 	H 	0.1563	0.0944	0.8482	0.052
Mof_H 	H 	0.1657	0.1191	0.7175	0.053
Mof_H 	H 	0.8363	0.8695	0.6244	0.067
Mof_H 	H 	0.7016	0.7429	0.6477	0.094
Mof_H 	H 	0.8208	0.8423	0.7537	0.085
Mof_H 	H 	0.7931	0.765	0.7822	0.034
Mof_H 	H 	0.7293	0.8126	0.7937	0.034
Mof_H 	H 	0.654	0.678	0.7583	0.071
Mof_H 	H 	0.6309	0.6479	0.8864	0.053
Mof_H 	H 	0.7571	0.7836	0.8686	0.054
Mof_H 	H 	0.4776	0.7754	0.0315	0.059
Mof_H 	H 	0.3671	0.9174	0.0083	0.065
Mof_H 	H 	0.5818	0.9242	0.016	0.066
Mof_H 	H 	0.4426	0.0094	0.0287	0.069
Mof_H 	H 	0.4413	0.9804	0.9737	0.069
Mof_H 	H 	0.8678	0.5928	0.0111	0.069
Mof_H 	H 	0.9779	0.7419	0.0063	0.063
Mof_H 	H 	0.0822	0.585	0.999	0.068
Mof_H 	H 	0.9395	0.4981	0.9751	0.068
Mof_H 	H 	0.9467	0.5149	0.0304	0.07
Mof_C 	C 	0.2012	0.79349	0.09398	0.32
Mof_C 	C 	0.1847	0.81364	0.14438	-0.026
Mof_C 	C 	0.14682	0.86574	0.16245	-0.021
Mof_C 	C 	0.12934	0.88236	0.20969	-0.032
Mof_C 	C 	0.0837	0.93613	0.23018	0.342
Mof_C 	C 	0.15	0.8457	0.23858	-0.106
Mof_C 	C 	0.1903	0.79455	0.2192	0.167
Mof_C 	C 	0.2077	0.77854	0.17333	-0.12
Mof_C 	C 	0.25	0.71014	0.23415	0.02
Mof_C 	C 	0.2727	0.67961	0.26656	0.011
Mof_C 	C 	0.2523	0.69539	0.31151	-0.019
Mof_C 	C 	0.2793	0.66378	0.34236	-0.076
Mof_C 	C 	0.26003	0.68646	0.39306	0.353
Mof_C 	C 	0.3262	0.61576	0.32689	0.029
Mof_C 	C 	0.34775	0.59876	0.28045	-0.086
Mof_C 	C 	0.3208	0.6303	0.24943	-0.021
Mof_C 	C 	0.40235	0.55227	0.26381	0.361
Mof_C 	C 	0.60333	0.40618	0.20785	0.343
Mof_C 	C 	0.66117	0.36113	0.19088	-0.035
Mof_C 	C 	0.68251	0.34734	0.14478	-0.016
Mof_C 	C 	0.73096	0.30152	0.12826	-0.034
Mof_C 	C 	0.74974	0.28365	0.07772	0.34
Mof_C 	C 	0.7632	0.27303	0.15873	-0.103
Mof_C 	C 	0.744	0.28854	0.20562	0.162
Mof_C 	C 	0.69283	0.33214	0.22182	-0.109
Mof_C 	C 	0.7593	0.26938	0.28016	0.02
Mof_C 	C 	0.7911	0.23578	0.30854	0.011
Mof_C 	C 	0.8351	0.18879	0.29067	-0.02
Mof_C 	C 	0.86436	0.15627	0.31981	-0.074
Mof_C 	C 	0.916	0.10507	0.29936	0.36
Mof_C 	C 	0.84875	0.17045	0.36683	0.024
Mof_C 	C 	0.80331	0.21762	0.38463	-0.078
Mof_C 	C 	0.7742	0.25081	0.35597	-0.025
Mof_C 	C 	0.78722	0.23689	0.43577	0.356
Mof_C 	C 	0.88905	0.31775	0.52773	0.347
Mof_C 	C 	0.95915	0.34644	0.52439	-0.058
Mof_C 	C 	0.0232	0.31434	0.52566	0.005
Mof_C 	C 	0.08782	0.34088	0.51821	-0.061
Mof_C 	C 	0.15591	0.30758	0.51633	0.348
Mof_C 	C 	0.0891	0.39796	0.51162	-0.058
Mof_C 	C 	0.0232	0.42696	0.51	0.065
Mof_C 	C 	0.9613	0.40247	0.51664	-0.062
Mof_C 	C 	0.0298	0.4843	0.50225	-0.129
Mof_C 	C 	0.65703	0.20864	0.51457	0.353
Mof_C 	C 	0.588	0.11183	0.50818	-0.07
Mof_C 	C 	0.58719	0.17242	0.50889	-0.047
Mof_C 	C 	0.52338	0.20023	0.50592	-0.002
Mof_C 	C 	0.46068	0.16749	0.5024	-0.054
Mof_C 	C 	0.39004	0.19916	0.50212	0.348
Mof_C 	C 	0.4611	0.10723	0.50125	-0.061
Mof_C 	C 	0.52737	0.07917	0.50344	0.066
Mof_C 	C 	0.529	0.01783	0.50138	-0.131
Mof_C 	C 	0.7012	0.70651	0.40602	0.32
Mof_C 	C 	0.6847	0.68636	0.35562	-0.026
Mof_C 	C 	0.64682	0.63426	0.33755	-0.02
Mof_C 	C 	0.62934	0.61764	0.29031	-0.033
Mof_C 	C 	0.5837	0.56387	0.26982	0.342
Mof_C 	C 	0.65	0.6543	0.26142	-0.106
Mof_C 	C 	0.6903	0.70545	0.2808	0.167
Mof_C 	C 	0.7077	0.72146	0.32667	-0.119
Mof_C 	C 	0.75	0.78986	0.26585	0.02
Mof_C 	C 	0.7727	0.82039	0.23344	0.011
Mof_C 	C 	0.7523	0.80461	0.18849	-0.019
Mof_C 	C 	0.7793	0.83622	0.15764	-0.077
Mof_C 	C 	0.76003	0.81354	0.10694	0.353
Mof_C 	C 	0.8262	0.88424	0.17311	0.029
Mof_C 	C 	0.84775	0.90124	0.21955	-0.086
Mof_C 	C 	0.8208	0.8697	0.25057	-0.021
Mof_C 	C 	0.90235	0.94773	0.23619	0.361
Mof_C 	C 	0.10333	0.09382	0.29215	0.343
Mof_C 	C 	0.16117	0.13887	0.30912	-0.036
Mof_C 	C 	0.18251	0.15266	0.35522	-0.016
Mof_C 	C 	0.23096	0.19848	0.37174	-0.034
Mof_C 	C 	0.24974	0.21635	0.42228	0.34
Mof_C 	C 	0.2632	0.22697	0.34127	-0.103
Mof_C 	C 	0.244	0.21146	0.29438	0.162
Mof_C 	C 	0.19283	0.16786	0.27818	-0.109
Mof_C 	C 	0.2593	0.23062	0.21984	0.021
Mof_C 	C 	0.2911	0.26422	0.19146	0.01
Mof_C 	C 	0.3351	0.31121	0.20933	-0.02
Mof_C 	C 	0.36436	0.34373	0.18019	-0.075
Mof_C 	C 	0.416	0.39493	0.20064	0.361
Mof_C 	C 	0.34875	0.32955	0.13317	0.024
Mof_C 	C 	0.30331	0.28238	0.11537	-0.078
Mof_C 	C 	0.2742	0.24919	0.14403	-0.025
Mof_C 	C 	0.28722	0.26311	0.06423	0.356
Mof_C 	C 	0.38905	0.18225	0.97227	0.347
Mof_C 	C 	0.45915	0.15356	0.97561	-0.059
Mof_C 	C 	0.5232	0.18566	0.97434	0.006
Mof_C 	C 	0.58782	0.15912	0.98179	-0.061
Mof_C 	C 	0.65591	0.19242	0.98367	0.348
Mof_C 	C 	0.5891	0.10204	0.98838	-0.058
Mof_C 	C 	0.5232	0.07304	0.99	0.066
Mof_C 	C 	0.4613	0.09753	0.98336	-0.062
Mof_C 	C 	0.5298	0.0157	0.99775	-0.13
Mof_C 	C 	0.15703	0.29136	0.98543	0.352
Mof_C 	C 	0.088	0.38817	0.99182	-0.071
Mof_C 	C 	0.08719	0.32758	0.99111	-0.046
Mof_C 	C 	0.02338	0.29977	0.99408	-0.003
Mof_C 	C 	0.96068	0.33251	0.9976	-0.052
Mof_C 	C 	0.89004	0.30084	0.99788	0.346
Mof_C 	C 	0.9611	0.39277	0.99875	-0.065
Mof_C 	C 	0.02737	0.42083	0.99656	0.069
Mof_C 	C 	0.029	0.48217	0.99862	-0.13
Mof_C 	C 	0.7988	0.20651	0.90602	0.32
Mof_C 	C 	0.8153	0.18636	0.85562	-0.026
Mof_C 	C 	0.85318	0.13426	0.83755	-0.021
Mof_C 	C 	0.87066	0.11764	0.79031	-0.032
Mof_C 	C 	0.9163	0.06387	0.76982	0.342
Mof_C 	C 	0.85	0.1543	0.76142	-0.106
Mof_C 	C 	0.8097	0.20545	0.7808	0.167
Mof_C 	C 	0.7923	0.22146	0.82667	-0.12
Mof_C 	C 	0.75	0.28986	0.76585	0.02
Mof_C 	C 	0.7273	0.32039	0.73344	0.011
Mof_C 	C 	0.7477	0.30461	0.68849	-0.019
Mof_C 	C 	0.7207	0.33622	0.65764	-0.076
Mof_C 	C 	0.73997	0.31354	0.60694	0.353
Mof_C 	C 	0.6738	0.38424	0.67311	0.029
Mof_C 	C 	0.65225	0.40124	0.71955	-0.086
Mof_C 	C 	0.6792	0.3697	0.75057	-0.021
Mof_C 	C 	0.59765	0.44773	0.73619	0.361
Mof_C 	C 	0.39667	0.59382	0.79215	0.343
Mof_C 	C 	0.33883	0.63887	0.80912	-0.035
Mof_C 	C 	0.31749	0.65266	0.85522	-0.016
Mof_C 	C 	0.26904	0.69848	0.87174	-0.034
Mof_C 	C 	0.25026	0.71635	0.92228	0.34
Mof_C 	C 	0.2368	0.72697	0.84127	-0.103
Mof_C 	C 	0.256	0.71146	0.79438	0.162
Mof_C 	C 	0.30717	0.66786	0.77818	-0.109
Mof_C 	C 	0.2407	0.73062	0.71984	0.02
Mof_C 	C 	0.2089	0.76422	0.69146	0.011
Mof_C 	C 	0.1649	0.81121	0.70933	-0.02
Mof_C 	C 	0.13564	0.84373	0.68019	-0.074
Mof_C 	C 	0.084	0.89493	0.70064	0.36
Mof_C 	C 	0.15125	0.82955	0.63317	0.024
Mof_C 	C 	0.19669	0.78238	0.61537	-0.078
Mof_C 	C 	0.2258	0.74919	0.64403	-0.025
Mof_C 	C 	0.21278	0.76311	0.56423	0.356
Mof_C 	C 	0.11095	0.68225	0.47227	0.347
Mof_C 	C 	0.04085	0.65356	0.47561	-0.058
Mof_C 	C 	0.9768	0.68566	0.47434	0.005
Mof_C 	C 	0.91218	0.65912	0.48179	-0.061
Mof_C 	C 	0.84409	0.69242	0.48367	0.348
Mof_C 	C 	0.9109	0.60204	0.48838	-0.058
Mof_C 	C 	0.9768	0.57304	0.49	0.065
Mof_C 	C 	0.0387	0.59753	0.48336	-0.062
Mof_C 	C 	0.9702	0.5157	0.49775	-0.129
Mof_C 	C 	0.34297	0.79136	0.48543	0.353
Mof_C 	C 	0.412	0.88817	0.49182	-0.07
Mof_C 	C 	0.41281	0.82758	0.49111	-0.047
Mof_C 	C 	0.47662	0.79977	0.49408	-0.002
Mof_C 	C 	0.53932	0.83251	0.4976	-0.054
Mof_C 	C 	0.60996	0.80084	0.49788	0.348
Mof_C 	C 	0.5389	0.89277	0.49875	-0.061
Mof_C 	C 	0.47263	0.92083	0.49656	0.066
Mof_C 	C 	0.471	0.98217	0.49862	-0.131
Mof_C 	C 	0.2988	0.29349	0.59398	0.32
Mof_C 	C 	0.3153	0.31364	0.64438	-0.026
Mof_C 	C 	0.35318	0.36574	0.66245	-0.02
Mof_C 	C 	0.37066	0.38236	0.70969	-0.033
Mof_C 	C 	0.4163	0.43613	0.73018	0.342
Mof_C 	C 	0.35	0.3457	0.73858	-0.106
Mof_C 	C 	0.3097	0.29455	0.7192	0.167
Mof_C 	C 	0.2923	0.27854	0.67333	-0.119
Mof_C 	C 	0.25	0.21014	0.73415	0.02
Mof_C 	C 	0.2273	0.17961	0.76656	0.011
Mof_C 	C 	0.2477	0.19539	0.81151	-0.019
Mof_C 	C 	0.2207	0.16378	0.84236	-0.077
Mof_C 	C 	0.23997	0.18646	0.89306	0.353
Mof_C 	C 	0.1738	0.11576	0.82689	0.029
Mof_C 	C 	0.15225	0.09876	0.78045	-0.086
Mof_C 	C 	0.1792	0.1303	0.74943	-0.021
Mof_C 	C 	0.09765	0.05227	0.76381	0.361
Mof_C 	C 	0.89667	0.90618	0.70785	0.343
Mof_C 	C 	0.83883	0.86113	0.69088	-0.036
Mof_C 	C 	0.81749	0.84734	0.64478	-0.016
Mof_C 	C 	0.76904	0.80152	0.62826	-0.034
Mof_C 	C 	0.75026	0.78365	0.57772	0.34
Mof_C 	C 	0.7368	0.77303	0.65873	-0.103
Mof_C 	C 	0.756	0.78854	0.70562	0.162
Mof_C 	C 	0.80717	0.83214	0.72182	-0.109
Mof_C 	C 	0.7407	0.76938	0.78016	0.021
Mof_C 	C 	0.7089	0.73578	0.80854	0.01
Mof_C 	C 	0.6649	0.68879	0.79067	-0.02
Mof_C 	C 	0.63564	0.65627	0.81981	-0.075
Mof_C 	C 	0.584	0.60507	0.79936	0.361
Mof_C 	C 	0.65125	0.67045	0.86683	0.024
Mof_C 	C 	0.69669	0.71762	0.88463	-0.078
Mof_C 	C 	0.7258	0.75081	0.85597	-0.025
Mof_C 	C 	0.71278	0.73689	0.93577	0.356
Mof_C 	C 	0.61095	0.81775	0.02773	0.347
Mof_C 	C 	0.54085	0.84644	0.02439	-0.059
Mof_C 	C 	0.4768	0.81434	0.02566	0.006
Mof_C 	C 	0.41218	0.84088	0.01821	-0.061
Mof_C 	C 	0.34409	0.80758	0.01633	0.348
Mof_C 	C 	0.4109	0.89796	0.01162	-0.058
Mof_C 	C 	0.4768	0.92696	0.01	0.066
Mof_C 	C 	0.5387	0.90247	0.01664	-0.062
Mof_C 	C 	0.4702	0.9843	0.00225	-0.13
Mof_C 	C 	0.84297	0.70864	0.01457	0.352
Mof_C 	C 	0.912	0.61183	0.00818	-0.071
Mof_C 	C 	0.91281	0.67242	0.00889	-0.046
Mof_C 	C 	0.97662	0.70023	0.00592	-0.003
Mof_C 	C 	0.03932	0.66749	0.0024	-0.052
Mof_C 	C 	0.10996	0.69916	0.00212	0.346
Mof_C 	C 	0.0389	0.60723	0.00125	-0.065
Mof_C 	C 	0.97263	0.57917	0.00344	0.069
Mof_C 	C 	0.971	0.51783	0.00138	-0.13
Mof_O 	O 	0.23246	0.74295	0.07979	-0.397
Mof_O 	O 	0.18305	0.82863	0.06852	-0.391
Mof_O 	O 	0.06657	0.96846	0.203	-0.396
Mof_O 	O 	0.06673	0.94453	0.27195	-0.408
Mof_O 	O 	0.2097	0.76036	0.25152	-0.213
Mof_O 	O 	0.28051	0.65252	0.41906	-0.402
Mof_O 	O 	0.22681	0.73463	0.40558	-0.406
Mof_O 	O 	0.42249	0.52231	0.2922	-0.4
Mof_O 	O 	0.42375	0.54436	0.22288	-0.413
Mof_O 	O 	0.58065	0.41164	0.24826	-0.405
Mof_O 	O 	0.5821	0.43589	0.17984	-0.4
Mof_O 	O 	0.72359	0.31407	0.05266	-0.402
Mof_O 	O 	0.79036	0.2378	0.06475	-0.397
Mof_O 	O 	0.7774	0.25551	0.23428	-0.213
Mof_O 	O 	0.9324	0.09717	0.25752	-0.408
Mof_O 	O 	0.93679	0.0744	0.32646	-0.405
Mof_O 	O 	0.74963	0.28264	0.45004	-0.417
Mof_O 	O 	0.81401	0.20428	0.46043	-0.394
Mof_O 	O 	0.83559	0.34671	0.52142	-0.403
Mof_O 	O 	0.88967	0.26581	0.53647	-0.402
Mof_O 	O 	0.15377	0.25547	0.5235	-0.4
Mof_O 	O 	0.21028	0.33317	0.50536	-0.41
Mof_O 	O 	0.71156	0.18086	0.51997	-0.417
Mof_O 	O 	0.65072	0.26281	0.51266	-0.4
Mof_O 	O 	0.39284	0.25346	0.49978	-0.404
Mof_O 	O 	0.33503	0.16899	0.50414	-0.407
Mof_O 	O 	0.73246	0.75705	0.42021	-0.397
Mof_O 	O 	0.68305	0.67137	0.43148	-0.391
Mof_O 	O 	0.56657	0.53154	0.297	-0.397
Mof_O 	O 	0.56673	0.55547	0.22805	-0.409
Mof_O 	O 	0.7097	0.73964	0.24848	-0.213
Mof_O 	O 	0.78051	0.84748	0.08094	-0.402
Mof_O 	O 	0.72681	0.76537	0.09442	-0.406
Mof_O 	O 	0.92249	0.97769	0.2078	-0.4
Mof_O 	O 	0.92375	0.95564	0.27712	-0.413
Mof_O 	O 	0.08065	0.08836	0.25174	-0.406
Mof_O 	O 	0.0821	0.06411	0.32016	-0.401
Mof_O 	O 	0.22359	0.18593	0.44734	-0.402
Mof_O 	O 	0.29036	0.2622	0.43525	-0.397
Mof_O 	O 	0.2774	0.24449	0.26572	-0.214
Mof_O 	O 	0.4324	0.40283	0.24248	-0.41
Mof_O 	O 	0.43679	0.4256	0.17354	-0.407
Mof_O 	O 	0.24963	0.21736	0.04996	-0.418
Mof_O 	O 	0.31401	0.29572	0.03957	-0.394
Mof_O 	O 	0.33559	0.15329	0.97858	-0.403
Mof_O 	O 	0.38967	0.23419	0.96353	-0.402
Mof_O 	O 	0.65377	0.24453	0.9765	-0.4
Mof_O 	O 	0.71028	0.16683	0.99464	-0.41
Mof_O 	O 	0.21156	0.31914	0.98003	-0.417
Mof_O 	O 	0.15072	0.23719	0.98734	-0.4
Mof_O 	O 	0.89284	0.24654	0.00022	-0.402
Mof_O 	O 	0.83503	0.33101	0.99586	-0.407
Mof_O 	O 	0.76754	0.25705	0.92021	-0.397
Mof_O 	O 	0.81695	0.17137	0.93148	-0.391
Mof_O 	O 	0.93343	0.03154	0.797	-0.396
Mof_O 	O 	0.93327	0.05547	0.72805	-0.408
Mof_O 	O 	0.7903	0.23964	0.74848	-0.213
Mof_O 	O 	0.71949	0.34748	0.58094	-0.402
Mof_O 	O 	0.77319	0.26537	0.59442	-0.406
Mof_O 	O 	0.57751	0.47769	0.7078	-0.4
Mof_O 	O 	0.57625	0.45564	0.77712	-0.413
Mof_O 	O 	0.41935	0.58836	0.75174	-0.405
Mof_O 	O 	0.4179	0.56411	0.82016	-0.4
Mof_O 	O 	0.27641	0.68593	0.94734	-0.402
Mof_O 	O 	0.20964	0.7622	0.93525	-0.397
Mof_O 	O 	0.2226	0.74449	0.76572	-0.213
Mof_O 	O 	0.0676	0.90283	0.74248	-0.408
Mof_O 	O 	0.06321	0.9256	0.67354	-0.405
Mof_O 	O 	0.25037	0.71736	0.54996	-0.417
Mof_O 	O 	0.18599	0.79572	0.53957	-0.394
Mof_O 	O 	0.16441	0.65329	0.47858	-0.403
Mof_O 	O 	0.11033	0.73419	0.46353	-0.402
Mof_O 	O 	0.84623	0.74453	0.4765	-0.4
Mof_O 	O 	0.78972	0.66683	0.49464	-0.41
Mof_O 	O 	0.28844	0.81914	0.48003	-0.417
Mof_O 	O 	0.34928	0.73719	0.48734	-0.4
Mof_O 	O 	0.60716	0.74654	0.50022	-0.404
Mof_O 	O 	0.66497	0.83101	0.49586	-0.407
Mof_O 	O 	0.26754	0.24295	0.57979	-0.397
Mof_O 	O 	0.31695	0.32863	0.56852	-0.391
Mof_O 	O 	0.43343	0.46846	0.703	-0.397
Mof_O 	O 	0.43327	0.44453	0.77195	-0.409
Mof_O 	O 	0.2903	0.26036	0.75152	-0.213
Mof_O 	O 	0.21949	0.15252	0.91906	-0.402
Mof_O 	O 	0.27319	0.23463	0.90558	-0.406
Mof_O 	O 	0.07751	0.02231	0.7922	-0.4
Mof_O 	O 	0.07625	0.04436	0.72288	-0.413
Mof_O 	O 	0.91935	0.91164	0.74826	-0.406
Mof_O 	O 	0.9179	0.93589	0.67984	-0.401
Mof_O 	O 	0.77641	0.81407	0.55266	-0.402
Mof_O 	O 	0.70964	0.7378	0.56475	-0.397
Mof_O 	O 	0.7226	0.75551	0.73428	-0.214
Mof_O 	O 	0.5676	0.59717	0.75752	-0.41
Mof_O 	O 	0.56321	0.5744	0.82646	-0.407
Mof_O 	O 	0.75037	0.78264	0.95004	-0.418
Mof_O 	O 	0.68599	0.70428	0.96043	-0.394
Mof_O 	O 	0.66441	0.84671	0.02142	-0.403
Mof_O 	O 	0.61033	0.76581	0.03647	-0.402
Mof_O 	O 	0.34623	0.75547	0.0235	-0.4
Mof_O 	O 	0.28972	0.83317	0.00536	-0.41
Mof_O 	O 	0.78844	0.68086	0.01997	-0.417
Mof_O 	O 	0.84928	0.76281	0.01266	-0.4
Mof_O 	O 	0.10716	0.75346	0.99978	-0.402
Mof_O 	O 	0.16497	0.66899	0.00414	-0.407
_end
