data_functionalizedCrystal
_audit_creation_method	'EQeq! by Chris Wilmer'
_symmetry_space_group_name_H-M	'P1'
_symmetry_Int_Tables_number	1
_symmetry_cell_setting	triclinic
loop_
_symmetry_equiv_pos_as_xyz
  x,y,z
_cell_length_a	9.062
_cell_length_b	9.618
_cell_length_c	25.6
_cell_angle_alpha	90
_cell_angle_beta	90
_cell_angle_gamma	90
loop_
_atom_site_label
_atom_site_type_symbol
_atom_site_fract_x
_atom_site_fract_y
_atom_site_fract_z
_atom_site_charge
Mof_Mn	Mn	0.2269	0.75	0.25	1.423
Mof_Mn	Mn	0.2731	0.75	0.75	1.423
Mof_Mn	Mn	0.7731	0.25	0.75	1.423
Mof_Mn	Mn	0.7269	0.25	0.25	1.423
Mof_Mn	Mn	0.75	0.444	0.5	0.987
Mof_Mn	Mn	0.75	0.056	-0	0.904
Mof_Mn	Mn	0.25	0.556	0.5	0.988
Mof_Mn	Mn	0.25	0.944	-0	0.905
Mof_H 	H 	0.7117	0.7109	0.2854	0.141
Mof_H 	H 	0.7324	0.6344	0.3721	0.02
Mof_H 	H 	0.1686	0.6504	0.3602	-0.006
Mof_H 	H 	0.7883	0.7109	0.7146	0.141
Mof_H 	H 	0.7676	0.6344	0.6279	0.02
Mof_H 	H 	0.3314	0.6504	0.6398	-0.006
Mof_H 	H 	0.7883	0.7891	0.7854	0.139
Mof_H 	H 	0.7676	0.8656	0.8721	0.026
Mof_H 	H 	0.3314	0.8496	0.8602	-0
Mof_H 	H 	0.7117	0.7891	0.2146	0.14
Mof_H 	H 	0.7324	0.8656	0.1279	0.019
Mof_H 	H 	0.1686	0.8496	0.1398	-0.007
Mof_H 	H 	0.2883	0.2891	0.7146	0.141
Mof_H 	H 	0.2676	0.3656	0.6279	0.019
Mof_H 	H 	0.8314	0.3496	0.6398	-0.007
Mof_H 	H 	0.2117	0.2891	0.2854	0.141
Mof_H 	H 	0.2324	0.3656	0.3721	0.02
Mof_H 	H 	0.6686	0.3496	0.3602	-0.006
Mof_H 	H 	0.2117	0.2109	0.2146	0.14
Mof_H 	H 	0.2324	0.1344	0.1279	0.019
Mof_H 	H 	0.6686	0.1504	0.1398	-0.006
Mof_H 	H 	0.2883	0.2109	0.7854	0.139
Mof_H 	H 	0.2676	0.1344	0.8721	0.026
Mof_H 	H 	0.8314	0.1504	0.8602	-0.001
Mof_C 	C 	0.348	0.791	0.2125	-0.375
Mof_C 	C 	0.936	0.725	0.2762	0.133
Mof_C 	C 	0.805	0.699	0.3018	-0.155
Mof_C 	C 	0.819	0.654	0.3524	0.153
Mof_C 	C 	0.952	0.638	0.3746	-0.208
Mof_C 	C 	0.073	0.662	0.3454	0.188
Mof_C 	C 	0.97	0.59	0.4299	0.448
Mof_C 	C 	0.152	0.791	0.7875	-0.373
Mof_C 	C 	0.564	0.725	0.7238	0.135
Mof_C 	C 	0.695	0.699	0.6982	-0.156
Mof_C 	C 	0.681	0.654	0.6476	0.153
Mof_C 	C 	0.548	0.638	0.6254	-0.207
Mof_C 	C 	0.427	0.662	0.6546	0.186
Mof_C 	C 	0.53	0.59	0.5701	0.448
Mof_C 	C 	0.152	0.709	0.7125	-0.374
Mof_C 	C 	0.564	0.775	0.7762	0.131
Mof_C 	C 	0.695	0.801	0.8018	-0.148
Mof_C 	C 	0.681	0.846	0.8524	0.144
Mof_C 	C 	0.548	0.862	0.8746	-0.192
Mof_C 	C 	0.427	0.838	0.8454	0.18
Mof_C 	C 	0.53	0.91	0.9299	0.434
Mof_C 	C 	0.348	0.709	0.2875	-0.374
Mof_C 	C 	0.936	0.775	0.2238	0.132
Mof_C 	C 	0.805	0.801	0.1982	-0.154
Mof_C 	C 	0.819	0.846	0.1476	0.15
Mof_C 	C 	0.952	0.862	0.1254	-0.207
Mof_C 	C 	0.073	0.838	0.1546	0.186
Mof_C 	C 	0.97	0.91	0.0701	0.438
Mof_C 	C 	0.652	0.209	0.7875	-0.373
Mof_C 	C 	0.064	0.275	0.7238	0.134
Mof_C 	C 	0.195	0.301	0.6982	-0.156
Mof_C 	C 	0.181	0.346	0.6476	0.153
Mof_C 	C 	0.048	0.362	0.6254	-0.208
Mof_C 	C 	0.927	0.338	0.6546	0.188
Mof_C 	C 	0.03	0.41	0.5701	0.448
Mof_C 	C 	0.848	0.209	0.2125	-0.375
Mof_C 	C 	0.436	0.275	0.2762	0.134
Mof_C 	C 	0.305	0.301	0.3018	-0.155
Mof_C 	C 	0.319	0.346	0.3524	0.152
Mof_C 	C 	0.452	0.362	0.3746	-0.207
Mof_C 	C 	0.573	0.338	0.3454	0.186
Mof_C 	C 	0.47	0.41	0.4299	0.448
Mof_C 	C 	0.848	0.291	0.2875	-0.374
Mof_C 	C 	0.436	0.225	0.2238	0.133
Mof_C 	C 	0.305	0.199	0.1982	-0.154
Mof_C 	C 	0.319	0.154	0.1476	0.15
Mof_C 	C 	0.452	0.138	0.1254	-0.205
Mof_C 	C 	0.573	0.162	0.1546	0.184
Mof_C 	C 	0.47	0.09	0.0701	0.439
Mof_C 	C 	0.652	0.291	0.7125	-0.374
Mof_C 	C 	0.064	0.225	0.7762	0.13
Mof_C 	C 	0.195	0.199	0.8018	-0.148
Mof_C 	C 	0.181	0.154	0.8524	0.145
Mof_C 	C 	0.048	0.138	0.8746	-0.194
Mof_C 	C 	0.927	0.162	0.8454	0.183
Mof_C 	C 	0.03	0.09	0.9299	0.432
Mof_N 	N 	0.06	0.704	0.2958	-0.267
Mof_N 	N 	0.44	0.704	0.7042	-0.267
Mof_N 	N 	0.44	0.796	0.7958	-0.265
Mof_N 	N 	0.06	0.796	0.2042	-0.266
Mof_N 	N 	0.94	0.296	0.7042	-0.267
Mof_N 	N 	0.56	0.296	0.2958	-0.267
Mof_N 	N 	0.56	0.204	0.2042	-0.267
Mof_N 	N 	0.94	0.204	0.7958	-0.264
Mof_Cl	Cl	0.2051	0.524	0.211	-0.401
Mof_Cl	Cl	0.2949	0.524	0.789	-0.393
Mof_Cl	Cl	0.2949	0.976	0.711	-0.399
Mof_Cl	Cl	0.2051	0.976	0.289	-0.398
Mof_Cl	Cl	0.7949	0.476	0.789	-0.393
Mof_Cl	Cl	0.7051	0.476	0.211	-0.402
Mof_Cl	Cl	0.7051	0.024	0.289	-0.399
Mof_Cl	Cl	0.7949	0.024	0.711	-0.399
Mof_O 	O 	0.476	0.832	0.1744	-0.05
Mof_O 	O 	0.85	0.592	0.4569	-0.394
Mof_O 	O 	0.095	0.558	0.4423	-0.435
Mof_O 	O 	0.024	0.832	0.8256	-0.045
Mof_O 	O 	0.65	0.592	0.5431	-0.394
Mof_O 	O 	0.405	0.558	0.5577	-0.435
Mof_O 	O 	0.024	0.668	0.6744	-0.049
Mof_O 	O 	0.65	0.908	0.9569	-0.349
Mof_O 	O 	0.405	0.942	0.9423	-0.395
Mof_O 	O 	0.476	0.668	0.3256	-0.049
Mof_O 	O 	0.85	0.908	0.0431	-0.398
Mof_O 	O 	0.095	0.942	0.0577	-0.431
Mof_O 	O 	0.524	0.168	0.8256	-0.045
Mof_O 	O 	0.15	0.408	0.5431	-0.394
Mof_O 	O 	0.905	0.442	0.5577	-0.435
Mof_O 	O 	0.976	0.168	0.1744	-0.05
Mof_O 	O 	0.35	0.408	0.4569	-0.394
Mof_O 	O 	0.595	0.442	0.4423	-0.435
Mof_O 	O 	0.976	0.332	0.3256	-0.049
Mof_O 	O 	0.35	0.092	0.0431	-0.398
Mof_O 	O 	0.595	0.058	0.0577	-0.432
Mof_O 	O 	0.524	0.332	0.6744	-0.049
Mof_O 	O 	0.15	0.092	0.9569	-0.348
Mof_O 	O 	0.905	0.058	0.9423	-0.393
_end
