data_functionalizedCrystal
_audit_creation_method	'EQeq! by Chris Wilmer'
_symmetry_space_group_name_H-M	'P1'
_symmetry_Int_Tables_number	1
_symmetry_cell_setting	triclinic
loop_
_symmetry_equiv_pos_as_xyz
  x,y,z
_cell_length_a	26.67
_cell_length_b	26.67
_cell_length_c	26.785
_cell_angle_alpha	60.1419
_cell_angle_beta	60.1419
_cell_angle_gamma	90
loop_
_atom_site_label
_atom_site_type_symbol
_atom_site_fract_x
_atom_site_fract_y
_atom_site_fract_z
_atom_site_charge
Mof_Cu	Cu	0.96588	0.03819	0.60544	0.902
Mof_Cu	Cu	0.97376	0.02885	0.70396	0.91
Mof_Cu	Cu	0.42868	0.35637	0.60544	0.902
Mof_Cu	Cu	0.32228	0.26719	0.70396	0.909
Mof_Cu	Cu	0.03819	0.42868	0.60544	0.899
Mof_Cu	Cu	0.02885	0.32228	0.70396	0.907
Mof_Cu	Cu	0.35637	0.96588	0.60544	0.906
Mof_Cu	Cu	0.26719	0.97376	0.70396	0.914
Mof_Cu	Cu	0.03412	0.96181	0.39456	0.902
Mof_Cu	Cu	0.02624	0.97115	0.29604	0.902
Mof_Cu	Cu	0.57132	0.64363	0.39456	0.903
Mof_Cu	Cu	0.67772	0.73281	0.29604	0.905
Mof_Cu	Cu	0.96181	0.57132	0.39456	0.906
Mof_Cu	Cu	0.97115	0.67772	0.29604	0.908
Mof_Cu	Cu	0.64363	0.03412	0.39456	0.9
Mof_Cu	Cu	0.73281	0.02624	0.29604	0.9
Mof_Cu	Cu	0.39183	0.93347	-0	0.859
Mof_Cu	Cu	0.70543	0.04998	-0	0.854
Mof_Cu	Cu	0.60817	0.06653	-0	0.853
Mof_Cu	Cu	0.29457	0.95002	-0	0.859
Mof_Cu	Cu	0.93347	0.60817	-0	0.859
Mof_Cu	Cu	0.04998	0.29457	-0	0.854
Mof_Cu	Cu	0.06653	0.39183	-0	0.853
Mof_Cu	Cu	0.95002	0.70543	-0	0.86
Mof_H 	H 	0.6694	0.067	0.1642	0.051
Mof_H 	H 	0.5128	0.0773	0.1766	0.077
Mof_H 	H 	0.5273	0.0634	0.3262	0.069
Mof_H 	H 	0.2011	0.9667	0.1726	0.057
Mof_H 	H 	0.3678	0.9891	0.136	0.066
Mof_H 	H 	0.2302	0.9974	0.2888	0.091
Mof_H 	H 	0.2944	0.0169	0.4692	0.089
Mof_H 	H 	0.1457	0.0505	0.4708	0.076
Mof_H 	H 	0.1571	0.0214	0.6276	0.07
Mof_H 	H 	0.4421	0.0757	0.3284	0.131
Mof_H 	H 	0.3889	0.0123	0.1946	0.125
Mof_H 	H 	0.2187	0.0462	0.3846	0.13
Mof_H 	H 	0.1664	0.7688	0.1642	0.051
Mof_H 	H 	0.3106	0.7461	0.1766	0.078
Mof_H 	H 	0.1465	0.6104	0.3262	0.069
Mof_H 	H 	0.6263	0.8607	0.1726	0.058
Mof_H 	H 	0.4962	0.8749	0.136	0.062
Mof_H 	H 	0.481	0.7138	0.2888	0.086
Mof_H 	H 	0.2364	0.5139	0.4692	0.09
Mof_H 	H 	0.3835	0.4787	0.4708	0.078
Mof_H 	H 	0.2153	0.351	0.6276	0.071
Mof_H 	H 	0.2295	0.5959	0.3284	0.131
Mof_H 	H 	0.4165	0.7931	0.1946	0.128
Mof_H 	H 	0.3967	0.5692	0.3846	0.133
Mof_H 	H 	0.067	0.1664	0.1642	0.049
Mof_H 	H 	0.0773	0.3106	0.1766	0.076
Mof_H 	H 	0.0634	0.1465	0.3262	0.068
Mof_H 	H 	0.9667	0.6263	0.1726	0.059
Mof_H 	H 	0.9891	0.4962	0.136	0.066
Mof_H 	H 	0.9974	0.481	0.2888	0.092
Mof_H 	H 	0.0169	0.2364	0.4692	0.089
Mof_H 	H 	0.0505	0.3835	0.4708	0.077
Mof_H 	H 	0.0214	0.2153	0.6276	0.071
Mof_H 	H 	0.0757	0.2295	0.3284	0.13
Mof_H 	H 	0.0123	0.4165	0.1946	0.125
Mof_H 	H 	0.0462	0.3967	0.3846	0.131
Mof_H 	H 	0.7688	0.6694	0.1642	0.053
Mof_H 	H 	0.7461	0.5128	0.1766	0.078
Mof_H 	H 	0.6104	0.5273	0.3262	0.071
Mof_H 	H 	0.8607	0.2011	0.1726	0.056
Mof_H 	H 	0.8749	0.3678	0.136	0.062
Mof_H 	H 	0.7138	0.2302	0.2888	0.085
Mof_H 	H 	0.5139	0.2944	0.4692	0.09
Mof_H 	H 	0.4787	0.1457	0.4708	0.077
Mof_H 	H 	0.351	0.1571	0.6276	0.071
Mof_H 	H 	0.5959	0.4421	0.3284	0.132
Mof_H 	H 	0.7931	0.3889	0.1946	0.128
Mof_H 	H 	0.5692	0.2187	0.3846	0.132
Mof_H 	H 	0.3306	0.933	0.8358	0.078
Mof_H 	H 	0.4872	0.9227	0.8234	0.1
Mof_H 	H 	0.4727	0.9366	0.6738	0.079
Mof_H 	H 	0.7989	0.0333	0.8274	0.074
Mof_H 	H 	0.6322	0.0109	0.864	0.083
Mof_H 	H 	0.7698	0.0026	0.7112	0.087
Mof_H 	H 	0.7056	0.9831	0.5308	0.093
Mof_H 	H 	0.8543	0.9495	0.5292	0.083
Mof_H 	H 	0.8429	0.9786	0.3724	0.069
Mof_H 	H 	0.5579	0.9243	0.6716	0.14
Mof_H 	H 	0.6111	0.9877	0.8054	0.146
Mof_H 	H 	0.7813	0.9538	0.6154	0.141
Mof_H 	H 	0.8336	0.2312	0.8358	0.078
Mof_H 	H 	0.6894	0.2539	0.8234	0.099
Mof_H 	H 	0.8535	0.3896	0.6738	0.079
Mof_H 	H 	0.3737	0.1393	0.8274	0.074
Mof_H 	H 	0.5038	0.1251	0.864	0.087
Mof_H 	H 	0.519	0.2862	0.7112	0.093
Mof_H 	H 	0.7636	0.4861	0.5308	0.092
Mof_H 	H 	0.6165	0.5213	0.5292	0.081
Mof_H 	H 	0.7847	0.649	0.3724	0.067
Mof_H 	H 	0.7705	0.4041	0.6716	0.139
Mof_H 	H 	0.5835	0.2069	0.8054	0.142
Mof_H 	H 	0.6033	0.4308	0.6154	0.138
Mof_H 	H 	0.933	0.8336	0.8358	0.081
Mof_H 	H 	0.9227	0.6894	0.8234	0.101
Mof_H 	H 	0.9366	0.8535	0.6738	0.081
Mof_H 	H 	0.0333	0.3737	0.8274	0.073
Mof_H 	H 	0.0109	0.5038	0.864	0.083
Mof_H 	H 	0.0026	0.519	0.7112	0.087
Mof_H 	H 	0.9831	0.7636	0.5308	0.094
Mof_H 	H 	0.9495	0.6165	0.5292	0.082
Mof_H 	H 	0.9786	0.7847	0.3724	0.068
Mof_H 	H 	0.9243	0.7705	0.6716	0.14
Mof_H 	H 	0.9877	0.5835	0.8054	0.146
Mof_H 	H 	0.9538	0.6033	0.6154	0.14
Mof_H 	H 	0.2312	0.3306	0.8358	0.077
Mof_H 	H 	0.2539	0.4872	0.8234	0.099
Mof_H 	H 	0.3896	0.4727	0.6738	0.078
Mof_H 	H 	0.1393	0.7989	0.8274	0.075
Mof_H 	H 	0.1251	0.6322	0.864	0.087
Mof_H 	H 	0.2862	0.7698	0.7112	0.093
Mof_H 	H 	0.4861	0.7056	0.5308	0.092
Mof_H 	H 	0.5213	0.8543	0.5292	0.082
Mof_H 	H 	0.649	0.8429	0.3724	0.068
Mof_H 	H 	0.4041	0.5579	0.6716	0.138
Mof_H 	H 	0.2069	0.6111	0.8054	0.142
Mof_H 	H 	0.4308	0.7813	0.6154	0.139
Mof_C 	C 	0.61881	0.07098	0.09768	0.36
Mof_C 	C 	0.63771	0.05559	0.28146	0.348
Mof_C 	C 	0.62864	0.06727	0.18814	0
Mof_C 	C 	0.5935	0.07042	0.16222	-0.064
Mof_C 	C 	0.60291	0.06444	0.24972	-0.059
Mof_C 	C 	0.53526	0.07263	0.19628	-0.079
Mof_C 	C 	0.50824	0.06824	0.25882	0.112
Mof_C 	C 	0.54397	0.06509	0.2845	-0.081
Mof_C 	C 	0.39823	0.05313	0.30134	0.196
Mof_C 	C 	0.34918	0.02878	0.26324	0.2
Mof_C 	C 	0.2988	0.0429	0.3502	0.206
Mof_C 	C 	0.20785	0.98192	0.23674	-0.041
Mof_C 	C 	0.28742	0.97458	0.14724	-0.056
Mof_C 	C 	0.30895	0.96221	0.09312	0.339
Mof_C 	C 	0.22812	0.97335	0.18368	-0.008
Mof_C 	C 	0.32662	0.9878	0.16176	-0.089
Mof_C 	C 	0.24576	0.99316	0.25108	-0.09
Mof_C 	C 	0.30841	0.99931	0.21238	0.127
Mof_C 	C 	0.14359	0.03762	0.55376	-0.029
Mof_C 	C 	0.25611	0.02279	0.4903	-0.098
Mof_C 	C 	0.22485	0.03695	0.4583	0.13
Mof_C 	C 	0.16812	0.04287	0.49098	-0.104
Mof_C 	C 	0.17398	0.02503	0.5848	-0.025
Mof_C 	C 	0.07913	0.03979	0.59048	0.327
Mof_C 	C 	0.14196	0.97764	0.27858	0.331
Mof_C 	C 	0.26394	0.00056	0.58758	0.321
Mof_C 	C 	0.23169	0.01742	0.55144	-0.029
Mof_C 	C 	0.28351	0.83134	0.09768	0.36
Mof_C 	C 	0.08083	0.66295	0.28146	0.349
Mof_C 	C 	0.18322	0.74459	0.18814	0
Mof_C 	C 	0.24428	0.76736	0.16222	-0.063
Mof_C 	C 	0.14737	0.68584	0.24972	-0.06
Mof_C 	C 	0.26846	0.73109	0.19628	-0.079
Mof_C 	C 	0.23294	0.67294	0.25882	0.113
Mof_C 	C 	0.17153	0.65041	0.2845	-0.081
Mof_C 	C 	0.30043	0.64553	0.30134	0.198
Mof_C 	C 	0.38758	0.70798	0.26324	0.202
Mof_C 	C 	0.351	0.6069	0.3502	0.208
Mof_C 	C 	0.55541	0.78134	0.23674	-0.045
Mof_C 	C 	0.56534	0.87818	0.14724	-0.059
Mof_C 	C 	0.59793	0.94467	0.09312	0.339
Mof_C 	C 	0.5882	0.84297	0.18368	-0.005
Mof_C 	C 	0.51162	0.85044	0.16176	-0.084
Mof_C 	C 	0.50316	0.75576	0.25108	-0.084
Mof_C 	C 	0.47921	0.78831	0.21238	0.114
Mof_C 	C 	0.30265	0.40862	0.55376	-0.027
Mof_C 	C 	0.25359	0.48691	0.4903	-0.095
Mof_C 	C 	0.31685	0.50475	0.4583	0.131
Mof_C 	C 	0.3409	0.46615	0.49098	-0.103
Mof_C 	C 	0.24122	0.39017	0.5848	-0.023
Mof_C 	C 	0.33039	0.36973	0.59048	0.327
Mof_C 	C 	0.57946	0.74378	0.27858	0.332
Mof_C 	C 	0.14848	0.41186	0.58758	0.337
Mof_C 	C 	0.21687	0.43114	0.55144	-0.031
Mof_C 	C 	0.07098	0.28351	0.09768	0.36
Mof_C 	C 	0.05559	0.08083	0.28146	0.349
Mof_C 	C 	0.06727	0.18322	0.18814	0.001
Mof_C 	C 	0.07042	0.24428	0.16222	-0.065
Mof_C 	C 	0.06444	0.14737	0.24972	-0.062
Mof_C 	C 	0.07263	0.26846	0.19628	-0.078
Mof_C 	C 	0.06824	0.23294	0.25882	0.111
Mof_C 	C 	0.06509	0.17153	0.2845	-0.08
Mof_C 	C 	0.05313	0.30043	0.30134	0.196
Mof_C 	C 	0.02878	0.38758	0.26324	0.2
Mof_C 	C 	0.0429	0.351	0.3502	0.206
Mof_C 	C 	0.98192	0.55541	0.23674	-0.039
Mof_C 	C 	0.97458	0.56534	0.14724	-0.055
Mof_C 	C 	0.96221	0.59793	0.09312	0.339
Mof_C 	C 	0.97335	0.5882	0.18368	-0.009
Mof_C 	C 	0.9878	0.51162	0.16176	-0.09
Mof_C 	C 	0.99316	0.50316	0.25108	-0.091
Mof_C 	C 	0.99931	0.47921	0.21238	0.128
Mof_C 	C 	0.03762	0.30265	0.55376	-0.028
Mof_C 	C 	0.02279	0.25359	0.4903	-0.098
Mof_C 	C 	0.03695	0.31685	0.4583	0.13
Mof_C 	C 	0.04287	0.3409	0.49098	-0.104
Mof_C 	C 	0.02503	0.24122	0.5848	-0.025
Mof_C 	C 	0.03979	0.33039	0.59048	0.326
Mof_C 	C 	0.97764	0.57946	0.27858	0.331
Mof_C 	C 	0.00056	0.14848	0.58758	0.323
Mof_C 	C 	0.01742	0.21687	0.55144	-0.028
Mof_C 	C 	0.83134	0.61881	0.09768	0.36
Mof_C 	C 	0.66295	0.63771	0.28146	0.348
Mof_C 	C 	0.74459	0.62864	0.18814	-0.001
Mof_C 	C 	0.76736	0.5935	0.16222	-0.061
Mof_C 	C 	0.68584	0.60291	0.24972	-0.056
Mof_C 	C 	0.73109	0.53526	0.19628	-0.08
Mof_C 	C 	0.67294	0.50824	0.25882	0.115
Mof_C 	C 	0.65041	0.54397	0.2845	-0.082
Mof_C 	C 	0.64553	0.39823	0.30134	0.198
Mof_C 	C 	0.70798	0.34918	0.26324	0.202
Mof_C 	C 	0.6069	0.2988	0.3502	0.208
Mof_C 	C 	0.78134	0.20785	0.23674	-0.046
Mof_C 	C 	0.87818	0.28742	0.14724	-0.06
Mof_C 	C 	0.94467	0.30895	0.09312	0.34
Mof_C 	C 	0.84297	0.22812	0.18368	-0.005
Mof_C 	C 	0.85044	0.32662	0.16176	-0.083
Mof_C 	C 	0.75576	0.24576	0.25108	-0.084
Mof_C 	C 	0.78831	0.30841	0.21238	0.113
Mof_C 	C 	0.40862	0.14359	0.55376	-0.029
Mof_C 	C 	0.48691	0.25611	0.4903	-0.095
Mof_C 	C 	0.50475	0.22485	0.4583	0.13
Mof_C 	C 	0.46615	0.16812	0.49098	-0.102
Mof_C 	C 	0.39017	0.17398	0.5848	-0.022
Mof_C 	C 	0.36973	0.07913	0.59048	0.328
Mof_C 	C 	0.74378	0.14196	0.27858	0.332
Mof_C 	C 	0.41186	0.26394	0.58758	0.337
Mof_C 	C 	0.43114	0.23169	0.55144	-0.032
Mof_C 	C 	0.38119	0.92902	0.90232	0.345
Mof_C 	C 	0.36229	0.94441	0.71854	0.344
Mof_C 	C 	0.37136	0.93273	0.81186	-0.013
Mof_C 	C 	0.4065	0.92958	0.83778	-0.023
Mof_C 	C 	0.39709	0.93556	0.75028	-0.033
Mof_C 	C 	0.46474	0.92737	0.80372	-0.093
Mof_C 	C 	0.49176	0.93176	0.74118	0.137
Mof_C 	C 	0.45603	0.93491	0.7155	-0.091
Mof_C 	C 	0.60177	0.94687	0.69866	0.21
Mof_C 	C 	0.65082	0.97122	0.73676	0.218
Mof_C 	C 	0.7012	0.9571	0.6498	0.218
Mof_C 	C 	0.79215	0.01808	0.76326	-0.03
Mof_C 	C 	0.71258	0.02542	0.85276	-0.029
Mof_C 	C 	0.69105	0.03779	0.90688	0.331
Mof_C 	C 	0.77188	0.02665	0.81632	-0.014
Mof_C 	C 	0.67338	0.0122	0.83824	-0.088
Mof_C 	C 	0.75424	0.00684	0.74892	-0.087
Mof_C 	C 	0.69159	0.00069	0.78762	0.123
Mof_C 	C 	0.85641	0.96238	0.44624	-0.025
Mof_C 	C 	0.74389	0.97721	0.5097	-0.091
Mof_C 	C 	0.77515	0.96305	0.5417	0.137
Mof_C 	C 	0.83188	0.95713	0.50902	-0.101
Mof_C 	C 	0.82602	0.97497	0.4152	-0.018
Mof_C 	C 	0.92087	0.96021	0.40952	0.329
Mof_C 	C 	0.85804	0.02236	0.72142	0.33
Mof_C 	C 	0.73606	0.99944	0.41242	0.356
Mof_C 	C 	0.76831	0.98258	0.44856	-0.034
Mof_C 	C 	0.71649	0.16866	0.90232	0.344
Mof_C 	C 	0.91917	0.33705	0.71854	0.343
Mof_C 	C 	0.81678	0.25541	0.81186	-0.014
Mof_C 	C 	0.75572	0.23264	0.83778	-0.024
Mof_C 	C 	0.85263	0.31416	0.75028	-0.033
Mof_C 	C 	0.73154	0.26891	0.80372	-0.093
Mof_C 	C 	0.76706	0.32706	0.74118	0.136
Mof_C 	C 	0.82847	0.34959	0.7155	-0.091
Mof_C 	C 	0.69957	0.35447	0.69866	0.208
Mof_C 	C 	0.61242	0.29202	0.73676	0.215
Mof_C 	C 	0.649	0.3931	0.6498	0.216
Mof_C 	C 	0.44459	0.21866	0.76326	-0.025
Mof_C 	C 	0.43466	0.12182	0.85276	-0.026
Mof_C 	C 	0.40207	0.05533	0.90688	0.331
Mof_C 	C 	0.4118	0.15703	0.81632	-0.017
Mof_C 	C 	0.48838	0.14956	0.83824	-0.094
Mof_C 	C 	0.49684	0.24424	0.74892	-0.093
Mof_C 	C 	0.52079	0.21169	0.78762	0.137
Mof_C 	C 	0.69735	0.59138	0.44624	-0.027
Mof_C 	C 	0.74641	0.51309	0.5097	-0.094
Mof_C 	C 	0.68315	0.49525	0.5417	0.135
Mof_C 	C 	0.6591	0.53385	0.50902	-0.102
Mof_C 	C 	0.75878	0.60983	0.4152	-0.021
Mof_C 	C 	0.66961	0.63027	0.40952	0.329
Mof_C 	C 	0.42054	0.25622	0.72142	0.329
Mof_C 	C 	0.85152	0.58814	0.41242	0.338
Mof_C 	C 	0.78313	0.56886	0.44856	-0.031
Mof_C 	C 	0.92902	0.71649	0.90232	0.344
Mof_C 	C 	0.94441	0.91917	0.71854	0.342
Mof_C 	C 	0.93273	0.81678	0.81186	-0.014
Mof_C 	C 	0.92958	0.75572	0.83778	-0.021
Mof_C 	C 	0.93556	0.85263	0.75028	-0.03
Mof_C 	C 	0.92737	0.73154	0.80372	-0.094
Mof_C 	C 	0.93176	0.76706	0.74118	0.138
Mof_C 	C 	0.93491	0.82847	0.7155	-0.092
Mof_C 	C 	0.94687	0.69957	0.69866	0.21
Mof_C 	C 	0.97122	0.61242	0.73676	0.218
Mof_C 	C 	0.9571	0.649	0.6498	0.218
Mof_C 	C 	0.01808	0.44459	0.76326	-0.031
Mof_C 	C 	0.02542	0.43466	0.85276	-0.03
Mof_C 	C 	0.03779	0.40207	0.90688	0.331
Mof_C 	C 	0.02665	0.4118	0.81632	-0.014
Mof_C 	C 	0.0122	0.48838	0.83824	-0.088
Mof_C 	C 	0.00684	0.49684	0.74892	-0.086
Mof_C 	C 	0.00069	0.52079	0.78762	0.123
Mof_C 	C 	0.96238	0.69735	0.44624	-0.027
Mof_C 	C 	0.97721	0.74641	0.5097	-0.091
Mof_C 	C 	0.96305	0.68315	0.5417	0.136
Mof_C 	C 	0.95713	0.6591	0.50902	-0.101
Mof_C 	C 	0.97497	0.75878	0.4152	-0.017
Mof_C 	C 	0.96021	0.66961	0.40952	0.33
Mof_C 	C 	0.02236	0.42054	0.72142	0.33
Mof_C 	C 	0.99944	0.85152	0.41242	0.357
Mof_C 	C 	0.98258	0.78313	0.44856	-0.035
Mof_C 	C 	0.16866	0.38119	0.90232	0.345
Mof_C 	C 	0.33705	0.36229	0.71854	0.344
Mof_C 	C 	0.25541	0.37136	0.81186	-0.013
Mof_C 	C 	0.23264	0.4065	0.83778	-0.026
Mof_C 	C 	0.31416	0.39709	0.75028	-0.036
Mof_C 	C 	0.26891	0.46474	0.80372	-0.092
Mof_C 	C 	0.32706	0.49176	0.74118	0.134
Mof_C 	C 	0.34959	0.45603	0.7155	-0.09
Mof_C 	C 	0.35447	0.60177	0.69866	0.208
Mof_C 	C 	0.29202	0.65082	0.73676	0.215
Mof_C 	C 	0.3931	0.7012	0.6498	0.216
Mof_C 	C 	0.21866	0.79215	0.76326	-0.024
Mof_C 	C 	0.12182	0.71258	0.85276	-0.026
Mof_C 	C 	0.05533	0.69105	0.90688	0.33
Mof_C 	C 	0.15703	0.77188	0.81632	-0.018
Mof_C 	C 	0.14956	0.67338	0.83824	-0.095
Mof_C 	C 	0.24424	0.75424	0.74892	-0.094
Mof_C 	C 	0.21169	0.69159	0.78762	0.137
Mof_C 	C 	0.59138	0.85641	0.44624	-0.025
Mof_C 	C 	0.51309	0.74389	0.5097	-0.095
Mof_C 	C 	0.49525	0.77515	0.5417	0.136
Mof_C 	C 	0.53385	0.83188	0.50902	-0.102
Mof_C 	C 	0.60983	0.82602	0.4152	-0.021
Mof_C 	C 	0.63027	0.92087	0.40952	0.328
Mof_C 	C 	0.25622	0.85804	0.72142	0.329
Mof_C 	C 	0.58814	0.73606	0.41242	0.338
Mof_C 	C 	0.56886	0.76831	0.44856	-0.031
Mof_N 	N 	0.3485	0.05595	0.34786	-0.179
Mof_N 	N 	0.29777	0.03216	0.30684	-0.181
Mof_N 	N 	0.40149	0.03752	0.25852	-0.174
Mof_N 	N 	0.44827	0.0664	0.29908	-0.23
Mof_N 	N 	0.35283	0.01356	0.2211	-0.238
Mof_N 	N 	0.24529	0.04249	0.3954	-0.235
Mof_N 	N 	0.30364	0.59619	0.34786	-0.179
Mof_N 	N 	0.39539	0.661	0.30684	-0.179
Mof_N 	N 	0.33999	0.70396	0.25852	-0.173
Mof_N 	N 	0.25265	0.63452	0.29908	-0.23
Mof_N 	N 	0.42607	0.76534	0.2211	-0.231
Mof_N 	N 	0.35931	0.56211	0.3954	-0.235
Mof_N 	N 	0.05595	0.30364	0.34786	-0.179
Mof_N 	N 	0.03216	0.39539	0.30684	-0.182
Mof_N 	N 	0.03752	0.33999	0.25852	-0.174
Mof_N 	N 	0.0664	0.25265	0.29908	-0.23
Mof_N 	N 	0.01356	0.42607	0.2211	-0.239
Mof_N 	N 	0.04249	0.35931	0.3954	-0.235
Mof_N 	N 	0.59619	0.3485	0.34786	-0.179
Mof_N 	N 	0.661	0.29777	0.30684	-0.179
Mof_N 	N 	0.70396	0.40149	0.25852	-0.173
Mof_N 	N 	0.63452	0.44827	0.29908	-0.231
Mof_N 	N 	0.76534	0.35283	0.2211	-0.231
Mof_N 	N 	0.56211	0.24529	0.3954	-0.235
Mof_N 	N 	0.6515	0.94405	0.65214	-0.176
Mof_N 	N 	0.70223	0.96784	0.69316	-0.174
Mof_N 	N 	0.59851	0.96248	0.74148	-0.169
Mof_N 	N 	0.55173	0.9336	0.70092	-0.233
Mof_N 	N 	0.64717	0.98644	0.7789	-0.227
Mof_N 	N 	0.75471	0.95751	0.6046	-0.236
Mof_N 	N 	0.69636	0.40381	0.65214	-0.176
Mof_N 	N 	0.60461	0.339	0.69316	-0.177
Mof_N 	N 	0.66001	0.29604	0.74148	-0.17
Mof_N 	N 	0.74735	0.36548	0.70092	-0.233
Mof_N 	N 	0.57393	0.23466	0.7789	-0.234
Mof_N 	N 	0.64069	0.43789	0.6046	-0.236
Mof_N 	N 	0.94405	0.69636	0.65214	-0.176
Mof_N 	N 	0.96784	0.60461	0.69316	-0.174
Mof_N 	N 	0.96248	0.66001	0.74148	-0.169
Mof_N 	N 	0.9336	0.74735	0.70092	-0.233
Mof_N 	N 	0.98644	0.57393	0.7789	-0.227
Mof_N 	N 	0.95751	0.64069	0.6046	-0.236
Mof_N 	N 	0.40381	0.6515	0.65214	-0.176
Mof_N 	N 	0.339	0.70223	0.69316	-0.177
Mof_N 	N 	0.29604	0.59851	0.74148	-0.17
Mof_N 	N 	0.36548	0.55173	0.70092	-0.233
Mof_N 	N 	0.23466	0.64717	0.7789	-0.234
Mof_N 	N 	0.43789	0.75471	0.6046	-0.236
Mof_O 	O 	0.35768	0.9502	0.07222	-0.424
Mof_O 	O 	0.58767	0.077	0.0743	-0.443
Mof_O 	O 	0.67079	0.06462	0.07316	-0.435
Mof_O 	O 	0.05727	0.03038	0.65032	-0.396
Mof_O 	O 	0.05309	0.04948	0.56024	-0.415
Mof_O 	O 	0.30976	0.98549	0.56344	-0.384
Mof_O 	O 	0.24057	0.00165	0.64162	-0.399
Mof_O 	O 	0.10985	0.97242	0.25744	-0.409
Mof_O 	O 	0.1215	0.97598	0.33326	-0.395
Mof_O 	O 	0.27465	0.96369	0.07244	-0.42
Mof_O 	O 	0.61125	0.05107	0.33838	-0.414
Mof_O 	O 	0.69055	0.05284	0.24994	-0.411
Mof_O 	O 	0.5701	0.97758	0.07222	-0.419
Mof_O 	O 	0.33803	0.8487	0.0743	-0.44
Mof_O 	O 	0.25605	0.86222	0.07316	-0.433
Mof_O 	O 	0.29241	0.3193	0.65032	-0.389
Mof_O 	O 	0.38667	0.39028	0.56024	-0.407
Mof_O 	O 	0.1268	0.45107	0.56344	-0.399
Mof_O 	O 	0.11781	0.35673	0.64162	-0.397
Mof_O 	O 	0.63271	0.77014	0.25744	-0.408
Mof_O 	O 	0.54524	0.69076	0.33326	-0.397
Mof_O 	O 	0.65291	0.96387	0.07244	-0.414
Mof_O 	O 	0.05037	0.61055	0.33838	-0.418
Mof_O 	O 	0.05951	0.69722	0.24994	-0.416
Mof_O 	O 	0.9502	0.5701	0.07222	-0.424
Mof_O 	O 	0.077	0.33803	0.0743	-0.443
Mof_O 	O 	0.06462	0.25605	0.07316	-0.436
Mof_O 	O 	0.03038	0.29241	0.65032	-0.391
Mof_O 	O 	0.04948	0.38667	0.56024	-0.41
Mof_O 	O 	0.98549	0.1268	0.56344	-0.385
Mof_O 	O 	0.00165	0.11781	0.64162	-0.398
Mof_O 	O 	0.97242	0.63271	0.25744	-0.405
Mof_O 	O 	0.97598	0.54524	0.33326	-0.393
Mof_O 	O 	0.96369	0.65291	0.07244	-0.418
Mof_O 	O 	0.05107	0.05037	0.33838	-0.42
Mof_O 	O 	0.05284	0.05951	0.24994	-0.418
Mof_O 	O 	0.97758	0.35768	0.07222	-0.419
Mof_O 	O 	0.8487	0.58767	0.0743	-0.439
Mof_O 	O 	0.86222	0.67079	0.07316	-0.431
Mof_O 	O 	0.3193	0.05727	0.65032	-0.394
Mof_O 	O 	0.39028	0.05309	0.56024	-0.413
Mof_O 	O 	0.45107	0.30976	0.56344	-0.398
Mof_O 	O 	0.35673	0.24057	0.64162	-0.398
Mof_O 	O 	0.77014	0.10985	0.25744	-0.411
Mof_O 	O 	0.69076	0.1215	0.33326	-0.398
Mof_O 	O 	0.96387	0.27465	0.07244	-0.416
Mof_O 	O 	0.61055	0.61125	0.33838	-0.41
Mof_O 	O 	0.69722	0.69055	0.24994	-0.407
Mof_O 	O 	0.64232	0.0498	0.92778	-0.356
Mof_O 	O 	0.41233	0.923	0.9257	-0.36
Mof_O 	O 	0.32921	0.93538	0.92684	-0.351
Mof_O 	O 	0.94273	0.96962	0.34968	-0.385
Mof_O 	O 	0.94691	0.95052	0.43976	-0.396
Mof_O 	O 	0.69024	0.01451	0.43656	-0.414
Mof_O 	O 	0.75943	0.99835	0.35838	-0.399
Mof_O 	O 	0.89015	0.02758	0.74256	-0.396
Mof_O 	O 	0.8785	0.02402	0.66674	-0.397
Mof_O 	O 	0.72535	0.03631	0.92756	-0.348
Mof_O 	O 	0.38875	0.94893	0.66162	-0.403
Mof_O 	O 	0.30945	0.94716	0.75006	-0.388
Mof_O 	O 	0.4299	0.02242	0.92778	-0.36
Mof_O 	O 	0.66197	0.1513	0.9257	-0.362
Mof_O 	O 	0.74395	0.13778	0.92684	-0.353
Mof_O 	O 	0.70759	0.6807	0.34968	-0.394
Mof_O 	O 	0.61333	0.60972	0.43976	-0.406
Mof_O 	O 	0.8732	0.54893	0.43656	-0.397
Mof_O 	O 	0.88219	0.64327	0.35838	-0.401
Mof_O 	O 	0.36729	0.22986	0.74256	-0.396
Mof_O 	O 	0.45476	0.30924	0.66674	-0.393
Mof_O 	O 	0.34709	0.03613	0.92756	-0.353
Mof_O 	O 	0.94963	0.38945	0.66162	-0.399
Mof_O 	O 	0.94049	0.30278	0.75006	-0.384
Mof_O 	O 	0.0498	0.4299	0.92778	-0.356
Mof_O 	O 	0.923	0.66197	0.9257	-0.359
Mof_O 	O 	0.93538	0.74395	0.92684	-0.349
Mof_O 	O 	0.96962	0.70759	0.34968	-0.391
Mof_O 	O 	0.95052	0.61333	0.43976	-0.403
Mof_O 	O 	0.01451	0.8732	0.43656	-0.414
Mof_O 	O 	0.99835	0.88219	0.35838	-0.399
Mof_O 	O 	0.02758	0.36729	0.74256	-0.398
Mof_O 	O 	0.02402	0.45476	0.66674	-0.397
Mof_O 	O 	0.03631	0.34709	0.92756	-0.349
Mof_O 	O 	0.94893	0.94963	0.66162	-0.395
Mof_O 	O 	0.94716	0.94049	0.75006	-0.379
Mof_O 	O 	0.02242	0.64232	0.92778	-0.361
Mof_O 	O 	0.1513	0.41233	0.9257	-0.363
Mof_O 	O 	0.13778	0.32921	0.92684	-0.354
Mof_O 	O 	0.6807	0.94273	0.34968	-0.388
Mof_O 	O 	0.60972	0.94691	0.43976	-0.399
Mof_O 	O 	0.54893	0.69024	0.43656	-0.397
Mof_O 	O 	0.64327	0.75943	0.35838	-0.401
Mof_O 	O 	0.22986	0.89015	0.74256	-0.393
Mof_O 	O 	0.30924	0.8785	0.66674	-0.392
Mof_O 	O 	0.03613	0.72535	0.92756	-0.353
Mof_O 	O 	0.38945	0.38875	0.66162	-0.406
Mof_O 	O 	0.30278	0.30945	0.75006	-0.391
_end
