data_functionalizedCrystal
_audit_creation_method	'EQeq! by Chris Wilmer'
_symmetry_space_group_name_H-M	'P1'
_symmetry_Int_Tables_number	1
_symmetry_cell_setting	triclinic
loop_
_symmetry_equiv_pos_as_xyz
  x,y,z
_cell_length_a	14.6464
_cell_length_b	14.6464
_cell_length_c	14.6464
_cell_angle_alpha	109.471
_cell_angle_beta	109.471
_cell_angle_gamma	109.471
loop_
_atom_site_label
_atom_site_type_symbol
_atom_site_fract_x
_atom_site_fract_y
_atom_site_fract_z
_atom_site_charge
Mof_H 	H 	0.8989	0.4256	0.7651	0.004
Mof_C 	C 	0.9442	0.4195	0.7343	-0.019
Mof_N 	N 	0.9072	0.351	0.6226	-0.293
Mof_H 	H 	0.6605	0.1338	0.2349	0.005
Mof_C 	C 	0.6852	0.2099	0.2657	-0.011
Mof_N 	N 	0.7284	0.2846	0.3774	-0.292
Mof_H 	H 	0.3395	0.5744	0.4733	0.003
Mof_C 	C 	0.3148	0.5805	0.5247	-0.013
Mof_N 	N 	0.2716	0.649	0.5562	-0.293
Mof_H 	H 	0.1011	0.8662	0.5267	0.001
Mof_C 	C 	0.0558	0.7901	0.4753	-0.006
Mof_N 	N 	0.0928	0.7154	0.4438	-0.294
Mof_H 	H 	0.7651	0.8989	0.4256	0.007
Mof_C 	C 	0.7343	0.9442	0.4195	-0.028
Mof_N 	N 	0.6226	0.9072	0.351	-0.294
Mof_H 	H 	0.2349	0.6605	0.1338	0.004
Mof_C 	C 	0.2657	0.6852	0.2099	-0.012
Mof_N 	N 	0.3774	0.7284	0.2846	-0.293
Mof_H 	H 	0.4733	0.3395	0.5744	0.003
Mof_C 	C 	0.5247	0.3148	0.5805	-0.012
Mof_N 	N 	0.5562	0.2716	0.649	-0.293
Mof_H 	H 	0.5267	0.1011	0.8662	-0.001
Mof_C 	C 	0.4753	0.0558	0.7901	0.003
Mof_N 	N 	0.4438	0.0928	0.7154	-0.296
Mof_H 	H 	0.4256	0.7651	0.8989	0.005
Mof_C 	C 	0.4195	0.7343	0.9442	-0.02
Mof_N 	N 	0.351	0.6226	0.9072	-0.294
Mof_H 	H 	0.1338	0.2349	0.6605	0.004
Mof_C 	C 	0.2099	0.2657	0.6852	-0.012
Mof_N 	N 	0.2846	0.3774	0.7284	-0.293
Mof_H 	H 	0.5744	0.4733	0.3395	0.003
Mof_C 	C 	0.5805	0.5247	0.3148	-0.012
Mof_N 	N 	0.649	0.5562	0.2716	-0.293
Mof_H 	H 	0.8662	0.5267	0.1011	0.002
Mof_C 	C 	0.7901	0.4753	0.0558	-0.005
Mof_N 	N 	0.7154	0.4438	0.0928	-0.294
Mof_H 	H 	0.4256	0.8989	0.7651	0.007
Mof_C 	C 	0.4195	0.9442	0.7343	-0.028
Mof_N 	N 	0.351	0.9072	0.6226	-0.294
Mof_H 	H 	0.1338	0.6605	0.2349	0.004
Mof_C 	C 	0.2099	0.6852	0.2657	-0.012
Mof_N 	N 	0.2846	0.7284	0.3774	-0.293
Mof_H 	H 	0.5744	0.3395	0.4733	0.004
Mof_C 	C 	0.5805	0.3148	0.5247	-0.012
Mof_N 	N 	0.649	0.2716	0.5562	-0.293
Mof_H 	H 	0.8662	0.1011	0.5267	-0
Mof_C 	C 	0.7901	0.0558	0.4753	0.003
Mof_N 	N 	0.7154	0.0928	0.4438	-0.295
Mof_H 	H 	0.8989	0.7651	0.4256	0.006
Mof_C 	C 	0.9442	0.7343	0.4195	-0.019
Mof_N 	N 	0.9072	0.6226	0.351	-0.293
Mof_H 	H 	0.6605	0.2349	0.1338	0.004
Mof_C 	C 	0.6852	0.2657	0.2099	-0.011
Mof_N 	N 	0.7284	0.3774	0.2846	-0.293
Mof_H 	H 	0.3395	0.4733	0.5744	0.004
Mof_C 	C 	0.3148	0.5247	0.5805	-0.012
Mof_N 	N 	0.2716	0.5562	0.649	-0.293
Mof_H 	H 	0.1011	0.5267	0.8662	0.001
Mof_C 	C 	0.0558	0.4753	0.7901	-0.006
Mof_N 	N 	0.0928	0.4438	0.7154	-0.294
Mof_H 	H 	0.7651	0.4256	0.8989	0.005
Mof_C 	C 	0.7343	0.4195	0.9442	-0.02
Mof_N 	N 	0.6226	0.351	0.9072	-0.294
Mof_H 	H 	0.2349	0.1338	0.6605	0.005
Mof_C 	C 	0.2657	0.2099	0.6852	-0.012
Mof_N 	N 	0.3774	0.2846	0.7284	-0.293
Mof_H 	H 	0.4733	0.5744	0.3395	0.004
Mof_C 	C 	0.5247	0.5805	0.3148	-0.012
Mof_N 	N 	0.5562	0.649	0.2716	-0.293
Mof_H 	H 	0.5267	0.8662	0.1011	-0
Mof_C 	C 	0.4753	0.7901	0.0558	-0.005
Mof_N 	N 	0.4438	0.7154	0.0928	-0.294
Mof_Zn	Zn	0.75	0.25	0.5	1.177
Mof_Zn	Zn	0.25	0.75	0.5	1.176
Mof_Zn	Zn	0.5	0.75	0.25	1.176
Mof_Zn	Zn	0.5	0.25	0.75	1.176
Mof_Zn	Zn	0.25	0.5	0.75	1.176
Mof_Zn	Zn	0.75	0.5	0.25	1.177
Mof_C 	C 	4.70041e-17	0.3694	0.6164	0.134
Mof_C 	C 	3.52531e-17	0.3161	0.5103	-0.237
Mof_C 	C 	0.753	0.3836	0.3836	0.133
Mof_C 	C 	0.8058	0.4897	0.4897	-0.242
Mof_C 	C 	0.247	0.6306	0.6306	0.13
Mof_C 	C 	0.1942	0.6839	0.6839	-0.242
Mof_C 	C 	-0	0.6164	0.3694	0.133
Mof_C 	C 	5.87551e-18	0.5103	0.3161	-0.236
Mof_C 	C 	0.6164	4.70041e-17	0.3694	0.136
Mof_C 	C 	0.5103	2.35021e-17	0.3161	-0.225
Mof_C 	C 	0.3836	0.753	0.3836	0.131
Mof_C 	C 	0.4897	0.8058	0.4897	-0.241
Mof_C 	C 	0.6306	0.247	0.6306	0.132
Mof_C 	C 	0.6839	0.1942	0.6839	-0.242
Mof_C 	C 	0.3694	4.70041e-17	0.6164	0.136
Mof_C 	C 	0.3161	4.70041e-17	0.5103	-0.232
Mof_C 	C 	0.3694	0.6164	-0	0.134
Mof_C 	C 	0.3161	0.5103	-0	-0.239
Mof_C 	C 	0.3836	0.3836	0.753	0.132
Mof_C 	C 	0.4897	0.4897	0.8058	-0.242
Mof_C 	C 	0.6306	0.6306	0.247	0.131
Mof_C 	C 	0.6839	0.6839	0.1942	-0.239
Mof_C 	C 	0.6164	0.3694	-0	0.135
Mof_C 	C 	0.5103	0.3161	-0	-0.238
Mof_H 	H 	0.04494	0.26637	0.51758	0.046
Mof_H 	H 	0.04494	0.38355	0.49379	0.048
Mof_H 	H 	0.86498	0.56168	0.48732	0.039
Mof_H 	H 	0.85475	0.48233	0.56322	0.036
Mof_H 	H 	0.73811	0.50635	0.49983	0.049
Mof_H 	H 	0.14525	0.62758	0.70847	0.036
Mof_H 	H 	0.13502	0.6967	0.62233	0.039
Mof_H 	H 	0.26189	0.76824	0.76172	0.048
Mof_H 	H 	0.04494	0.49379	0.38355	0.048
Mof_H 	H 	0.04494	0.51758	0.26637	0.046
Mof_H 	H 	0.51884	0.08229	0.37083	0.033
Mof_H 	H 	0.56377	0.84168	0.47737	0.031
Mof_H 	H 	0.49257	0.74032	0.51435	0.048
Mof_H 	H 	0.49402	0.87584	0.55864	0.042
Mof_H 	H 	0.70818	0.14499	0.62743	0.037
Mof_H 	H 	0.62244	0.13526	0.69699	0.04
Mof_H 	H 	0.7619	0.26191	0.7681	0.049
Mof_H 	H 	0.38285	0.03834	0.48996	0.05
Mof_H 	H 	0.27252	0.05123	0.52011	0.044
Mof_H 	H 	0.37755	0.51282	0.07455	0.039
Mof_H 	H 	0.2381	0.50001	0.0062	0.05
Mof_H 	H 	0.50807	0.4982	0.73838	0.049
Mof_H 	H 	0.56114	0.4887	0.86746	0.04
Mof_H 	H 	0.48116	0.56346	0.852	0.034
Mof_H 	H 	0.61715	0.65549	0.10711	0.05
Mof_H 	H 	0.74789	0.65832	0.18746	0.029
Mof_H 	H 	0.72748	0.77871	0.24759	0.043
Mof_H 	H 	0.50743	0.24774	0.02178	0.05
Mof_H 	H 	0.50598	0.38182	0.06463	0.044
Mof_H 	H 	0.91012	0.25756	0.43828	0.027
Mof_H 	H 	0.91012	0.43828	0.25755	0.027
Mof_H 	H 	0.43886	0.92757	0.30633	0.033
Mof_H 	H 	0.49193	0.99014	0.23032	0.041
Mof_H 	H 	0.25211	0.91043	0.43957	0.024
Mof_H 	H 	0.29182	0.43681	0.91925	0.034
Mof_H 	H 	0.43623	0.27791	0.9136	0.03
_end
