data_functionalizedCrystal
_audit_creation_method	'EQeq! by Chris Wilmer'
_symmetry_space_group_name_H-M	'P1'
_symmetry_Int_Tables_number	1
_symmetry_cell_setting	triclinic
loop_
_symmetry_equiv_pos_as_xyz
  x,y,z
_cell_length_a	10.819
_cell_length_b	24.514
_cell_length_c	16.607
_cell_angle_alpha	90
_cell_angle_beta	91.681
_cell_angle_gamma	90
loop_
_atom_site_label
_atom_site_type_symbol
_atom_site_fract_x
_atom_site_fract_y
_atom_site_fract_z
_atom_site_charge
Mof_Cd	Cd	0.99995	0.19798	0.96413	0.47
Mof_Cd	Cd	0.71515	0.86784	0.0074	0.42
Mof_C 	C 	0.988	0.2894	0.0579	0.312
Mof_C 	C 	0.989	0.33855	0.1108	-0.098
Mof_C 	C 	0.092	0.3511	0.1606	0.027
Mof_H 	H 	0.1625	0.3295	0.1583	0.037
Mof_C 	C 	0.0906	0.3952	0.2133	-0.095
Mof_H 	H 	0.1588	0.4025	0.2469	0.076
Mof_C 	C 	0.9861	0.42828	0.2153	0.043
Mof_C 	C 	0.885	0.4165	0.1635	-0.101
Mof_H 	H 	0.816	0.4391	0.1632	0.069
Mof_C 	C 	0.8863	0.37196	0.1132	0.027
Mof_H 	H 	0.8173	0.3643	0.0804	0.031
Mof_C 	C 	0.9825	0.47648	0.2689	0.056
Mof_C 	C 	0.0284	0.47659	0.3482	-0.1
Mof_C 	C 	0.0749	0.42537	0.3912	0.322
Mof_C 	C 	0.0288	0.52495	0.3917	0.042
Mof_H 	H 	0.062	0.5251	0.444	0.04
Mof_C 	C 	0.9808	0.57346	0.3594	-0.105
Mof_C 	C 	0.9326	0.57384	0.2808	0.058
Mof_C 	C 	0.9363	0.52565	0.2367	-0.118
Mof_H 	H 	0.9068	0.526	0.1835	0.075
Mof_C 	C 	0.8825	0.62304	0.2395	0.039
Mof_C 	C 	0.9388	0.67403	0.2465	-0.09
Mof_H 	H 	0.0086	0.6784	0.28	0.076
Mof_C 	C 	0.8912	0.71846	0.2038	0.026
Mof_H 	H 	0.9302	0.7522	0.2084	0.032
Mof_C 	C 	0.7858	0.71305	0.1541	-0.094
Mof_C 	C 	0.7297	0.6633	0.1479	0.03
Mof_H 	H 	0.6583	0.6595	0.1158	0.033
Mof_C 	C 	0.7772	0.61853	0.1884	-0.1
Mof_H 	H 	0.7389	0.5848	0.1819	0.067
Mof_C 	C 	0.9832	0.62171	0.415	0.316
Mof_C 	C 	0.7495	0.2512	0.8903	0.077
Mof_H 	H 	0.7441	0.2621	0.9437	0.027
Mof_C 	C 	0.6614	0.2703	0.8355	-0.125
Mof_H 	H 	0.5964	0.2919	0.8525	0.088
Mof_C 	C 	0.6709	0.25708	0.7553	0.055
Mof_C 	C 	0.7674	0.2222	0.7349	-0.128
Mof_H 	H 	0.7773	0.2122	0.6814	0.09
Mof_C 	C 	0.8481	0.20246	0.7941	0.075
Mof_H 	H 	0.9085	0.1775	0.7799	0.025
Mof_C 	C 	0.5833	0.27772	0.6923	0.077
Mof_C 	C 	0.4583	0.284	0.7081	-0.149
Mof_H 	H 	0.4287	0.2738	0.7579	0.099
Mof_C 	C 	0.3793	0.3052	0.6506	0.092
Mof_H 	H 	0.2966	0.3096	0.6629	0.019
Mof_C 	C 	0.5354	0.3134	0.5613	0.096
Mof_H 	H 	0.5625	0.3233	0.5106	0.012
Mof_C 	C 	0.6196	0.2928	0.6168	-0.151
Mof_H 	H 	0.702	0.2891	0.6032	0.107
Mof_C 	C 	0.7308	0.76178	0.1111	0.316
Mof_N 	N 	0.4153	0.31988	0.5774	-0.156
Mof_N 	N 	0.842	0.21803	0.8711	-0.146
Mof_O 	O 	0.8886	0.2642	0.0472	-0.279
Mof_O 	O 	0.0852	0.27435	0.0271	-0.271
Mof_O 	O 	0.0098	0.38364	0.38756	-0.273
Mof_O 	O 	0.1765	0.43202	0.43037	-0.289
Mof_O 	O 	0.0837	0.63459	0.44808	-0.27
Mof_O 	O 	0.8834	0.64691	0.42818	-0.291
Mof_O 	O 	0.6157	0.76267	0.1025	-0.26
Mof_O 	O 	0.802	0.7996	0.08888	-0.293
Mof_Cd	Cd	5e-05	0.69798	0.53587	0.473
Mof_Cd	Cd	0.28485	0.36784	0.4926	0.422
Mof_C 	C 	0.012	0.7894	0.4421	0.312
Mof_C 	C 	0.011	0.83855	0.3892	-0.099
Mof_C 	C 	0.908	0.8511	0.3394	0.029
Mof_H 	H 	0.8375	0.8295	0.3417	0.037
Mof_C 	C 	0.9094	0.8952	0.2867	-0.095
Mof_H 	H 	0.8412	0.9025	0.2531	0.076
Mof_C 	C 	0.0139	0.92828	0.2847	0.044
Mof_C 	C 	0.115	0.9165	0.3365	-0.103
Mof_H 	H 	0.184	0.9391	0.3368	0.069
Mof_C 	C 	0.1137	0.87196	0.3868	0.028
Mof_H 	H 	0.1827	0.8643	0.4196	0.03
Mof_C 	C 	0.0175	0.97648	0.2311	0.049
Mof_C 	C 	0.9716	0.97659	0.1518	-0.094
Mof_C 	C 	0.9251	0.92537	0.1088	0.32
Mof_C 	C 	0.9712	0.02495	0.1083	0.037
Mof_H 	H 	0.938	0.0251	0.056	0.042
Mof_C 	C 	0.0192	0.07346	0.1406	-0.102
Mof_C 	C 	0.0674	0.07384	0.2192	0.054
Mof_C 	C 	0.0637	0.02565	0.2633	-0.112
Mof_H 	H 	0.0932	0.026	0.3165	0.073
Mof_C 	C 	0.1175	0.12304	0.2605	0.041
Mof_C 	C 	0.0612	0.17403	0.2535	-0.093
Mof_H 	H 	0.9914	0.1784	0.22	0.077
Mof_C 	C 	0.1088	0.21846	0.2962	0.028
Mof_H 	H 	0.0698	0.2522	0.2916	0.031
Mof_C 	C 	0.2142	0.21305	0.3459	-0.095
Mof_C 	C 	0.2703	0.1633	0.3521	0.032
Mof_H 	H 	0.3417	0.1595	0.3842	0.032
Mof_C 	C 	0.2228	0.11853	0.3116	-0.102
Mof_H 	H 	0.2611	0.0848	0.3181	0.068
Mof_C 	C 	0.0168	0.12171	0.085	0.314
Mof_C 	C 	0.2505	0.7512	0.6097	0.077
Mof_H 	H 	0.2559	0.7621	0.5563	0.027
Mof_C 	C 	0.3386	0.7703	0.6645	-0.125
Mof_H 	H 	0.4036	0.7919	0.6475	0.088
Mof_C 	C 	0.3291	0.75708	0.7447	0.055
Mof_C 	C 	0.2326	0.7222	0.7651	-0.128
Mof_H 	H 	0.2227	0.7122	0.8186	0.09
Mof_C 	C 	0.1519	0.70246	0.7059	0.075
Mof_H 	H 	0.0915	0.6775	0.7201	0.025
Mof_C 	C 	0.4167	0.77772	0.8077	0.077
Mof_C 	C 	0.5417	0.784	0.7919	-0.149
Mof_H 	H 	0.5713	0.7738	0.7421	0.099
Mof_C 	C 	0.6207	0.8052	0.8494	0.092
Mof_H 	H 	0.7034	0.8096	0.8371	0.019
Mof_C 	C 	0.4646	0.8134	0.9387	0.096
Mof_H 	H 	0.4375	0.8233	0.9894	0.013
Mof_C 	C 	0.3804	0.7928	0.8832	-0.151
Mof_H 	H 	0.298	0.7891	0.8968	0.107
Mof_C 	C 	0.2692	0.26178	0.3889	0.316
Mof_N 	N 	0.5847	0.81988	0.9226	-0.156
Mof_N 	N 	0.158	0.71803	0.6289	-0.146
Mof_O 	O 	0.1114	0.7642	0.4528	-0.279
Mof_O 	O 	0.9148	0.77435	0.4729	-0.27
Mof_O 	O 	0.9902	0.88364	0.11244	-0.272
Mof_O 	O 	0.8235	0.93202	0.06963	-0.289
Mof_O 	O 	0.9163	0.13459	0.05192	-0.269
Mof_O 	O 	0.1166	0.14691	0.07182	-0.29
Mof_O 	O 	0.3843	0.26267	0.3975	-0.26
Mof_O 	O 	0.198	0.2996	0.41112	-0.294
Mof_Cd	Cd	5e-05	0.80202	0.03587	0.471
Mof_Cd	Cd	0.28485	0.13216	0.9926	0.421
Mof_C 	C 	0.012	0.7106	0.9421	0.313
Mof_C 	C 	0.011	0.66145	0.8892	-0.097
Mof_C 	C 	0.908	0.6489	0.8394	0.027
Mof_H 	H 	0.8375	0.6705	0.8417	0.037
Mof_C 	C 	0.9094	0.6048	0.7867	-0.095
Mof_H 	H 	0.8412	0.5975	0.7531	0.076
Mof_C 	C 	0.0139	0.57172	0.7847	0.043
Mof_C 	C 	0.115	0.5835	0.8365	-0.101
Mof_H 	H 	0.184	0.5609	0.8368	0.069
Mof_C 	C 	0.1137	0.62804	0.8868	0.027
Mof_H 	H 	0.1827	0.6357	0.9196	0.031
Mof_C 	C 	0.0175	0.52352	0.7311	0.056
Mof_C 	C 	0.9716	0.52341	0.6518	-0.1
Mof_C 	C 	0.9251	0.57463	0.6088	0.322
Mof_C 	C 	0.9712	0.47505	0.6083	0.042
Mof_H 	H 	0.938	0.4749	0.556	0.04
Mof_C 	C 	0.0192	0.42654	0.6406	-0.105
Mof_C 	C 	0.0674	0.42616	0.7192	0.058
Mof_C 	C 	0.0637	0.47435	0.7633	-0.118
Mof_H 	H 	0.0932	0.474	0.8165	0.075
Mof_C 	C 	0.1175	0.37696	0.7605	0.039
Mof_C 	C 	0.0612	0.32597	0.7535	-0.09
Mof_H 	H 	0.9914	0.3216	0.72	0.076
Mof_C 	C 	0.1088	0.28154	0.7962	0.026
Mof_H 	H 	0.0698	0.2478	0.7916	0.032
Mof_C 	C 	0.2142	0.28695	0.8459	-0.094
Mof_C 	C 	0.2703	0.3367	0.8521	0.03
Mof_H 	H 	0.3417	0.3405	0.8842	0.033
Mof_C 	C 	0.2228	0.38147	0.8116	-0.1
Mof_H 	H 	0.2611	0.4152	0.8181	0.067
Mof_C 	C 	0.0168	0.37829	0.585	0.316
Mof_C 	C 	0.2505	0.7488	0.1097	0.077
Mof_H 	H 	0.2559	0.7379	0.0563	0.027
Mof_C 	C 	0.3386	0.7297	0.1645	-0.125
Mof_H 	H 	0.4036	0.7081	0.1475	0.088
Mof_C 	C 	0.3291	0.74292	0.2447	0.055
Mof_C 	C 	0.2326	0.7778	0.2651	-0.128
Mof_H 	H 	0.2227	0.7878	0.3186	0.09
Mof_C 	C 	0.1519	0.79754	0.2059	0.075
Mof_H 	H 	0.0915	0.8225	0.2201	0.025
Mof_C 	C 	0.4167	0.72228	0.3077	0.077
Mof_C 	C 	0.5417	0.716	0.2919	-0.149
Mof_H 	H 	0.5713	0.7262	0.2421	0.099
Mof_C 	C 	0.6207	0.6948	0.3494	0.092
Mof_H 	H 	0.7034	0.6904	0.3371	0.019
Mof_C 	C 	0.4646	0.6866	0.4387	0.096
Mof_H 	H 	0.4375	0.6767	0.4894	0.012
Mof_C 	C 	0.3804	0.7072	0.3832	-0.151
Mof_H 	H 	0.298	0.7109	0.3968	0.107
Mof_C 	C 	0.2692	0.23822	0.8889	0.316
Mof_N 	N 	0.5847	0.68012	0.4226	-0.156
Mof_N 	N 	0.158	0.78197	0.1289	-0.146
Mof_O 	O 	0.1114	0.7358	0.9528	-0.279
Mof_O 	O 	0.9148	0.72565	0.9729	-0.271
Mof_O 	O 	0.9902	0.61636	0.61244	-0.273
Mof_O 	O 	0.8235	0.56798	0.56963	-0.289
Mof_O 	O 	0.9163	0.36541	0.55192	-0.27
Mof_O 	O 	0.1166	0.35309	0.57182	-0.291
Mof_O 	O 	0.3843	0.23733	0.8975	-0.26
Mof_O 	O 	0.198	0.2004	0.91112	-0.293
Mof_Cd	Cd	0.99995	0.30202	0.46413	0.473
Mof_Cd	Cd	0.71515	0.63216	0.5074	0.422
Mof_C 	C 	0.988	0.2106	0.5579	0.312
Mof_C 	C 	0.989	0.16145	0.6108	-0.099
Mof_C 	C 	0.092	0.1489	0.6606	0.029
Mof_H 	H 	0.1625	0.1705	0.6583	0.037
Mof_C 	C 	0.0906	0.1048	0.7133	-0.095
Mof_H 	H 	0.1588	0.0975	0.7469	0.076
Mof_C 	C 	0.9861	0.07172	0.7153	0.044
Mof_C 	C 	0.885	0.0835	0.6635	-0.103
Mof_H 	H 	0.816	0.0609	0.6632	0.069
Mof_C 	C 	0.8863	0.12804	0.6132	0.028
Mof_H 	H 	0.8173	0.1357	0.5804	0.03
Mof_C 	C 	0.9825	0.02352	0.7689	0.049
Mof_C 	C 	0.0284	0.02341	0.8482	-0.094
Mof_C 	C 	0.0749	0.07463	0.8912	0.32
Mof_C 	C 	0.0288	0.97505	0.8917	0.037
Mof_H 	H 	0.062	0.9749	0.944	0.042
Mof_C 	C 	0.9808	0.92654	0.8594	-0.102
Mof_C 	C 	0.9326	0.92616	0.7808	0.054
Mof_C 	C 	0.9363	0.97435	0.7367	-0.112
Mof_H 	H 	0.9068	0.974	0.6835	0.073
Mof_C 	C 	0.8825	0.87696	0.7395	0.041
Mof_C 	C 	0.9388	0.82597	0.7465	-0.093
Mof_H 	H 	0.0086	0.8216	0.78	0.077
Mof_C 	C 	0.8912	0.78154	0.7038	0.028
Mof_H 	H 	0.9302	0.7478	0.7084	0.031
Mof_C 	C 	0.7858	0.78695	0.6541	-0.095
Mof_C 	C 	0.7297	0.8367	0.6479	0.032
Mof_H 	H 	0.6583	0.8405	0.6158	0.032
Mof_C 	C 	0.7772	0.88147	0.6884	-0.102
Mof_H 	H 	0.7389	0.9152	0.6819	0.068
Mof_C 	C 	0.9832	0.87829	0.915	0.314
Mof_C 	C 	0.7495	0.2488	0.3903	0.077
Mof_H 	H 	0.7441	0.2379	0.4437	0.027
Mof_C 	C 	0.6614	0.2297	0.3355	-0.125
Mof_H 	H 	0.5964	0.2081	0.3525	0.088
Mof_C 	C 	0.6709	0.24292	0.2553	0.055
Mof_C 	C 	0.7674	0.2778	0.2349	-0.128
Mof_H 	H 	0.7773	0.2878	0.1814	0.09
Mof_C 	C 	0.8481	0.29754	0.2941	0.075
Mof_H 	H 	0.9085	0.3225	0.2799	0.025
Mof_C 	C 	0.5833	0.22228	0.1923	0.077
Mof_C 	C 	0.4583	0.216	0.2081	-0.149
Mof_H 	H 	0.4287	0.2262	0.2579	0.099
Mof_C 	C 	0.3793	0.1948	0.1506	0.092
Mof_H 	H 	0.2966	0.1904	0.1629	0.019
Mof_C 	C 	0.5354	0.1866	0.0613	0.096
Mof_H 	H 	0.5625	0.1767	0.0106	0.013
Mof_C 	C 	0.6196	0.2072	0.1168	-0.151
Mof_H 	H 	0.702	0.2109	0.1032	0.107
Mof_C 	C 	0.7308	0.73822	0.6111	0.316
Mof_N 	N 	0.4153	0.18012	0.0774	-0.156
Mof_N 	N 	0.842	0.28197	0.3711	-0.146
Mof_O 	O 	0.8886	0.2358	0.5472	-0.279
Mof_O 	O 	0.0852	0.22565	0.5271	-0.27
Mof_O 	O 	0.0098	0.11636	0.88756	-0.272
Mof_O 	O 	0.1765	0.06798	0.93037	-0.289
Mof_O 	O 	0.0837	0.86541	0.94808	-0.269
Mof_O 	O 	0.8834	0.85309	0.92818	-0.29
Mof_O 	O 	0.6157	0.73733	0.6025	-0.26
Mof_O 	O 	0.802	0.7004	0.58888	-0.294
_end
