data_functionalizedCrystal
_audit_creation_method	'EQeq! by Chris Wilmer'
_symmetry_space_group_name_H-M	'P1'
_symmetry_Int_Tables_number	1
_symmetry_cell_setting	triclinic
loop_
_symmetry_equiv_pos_as_xyz
  x,y,z
_cell_length_a	9.93
_cell_length_b	9.3445
_cell_length_c	22.717
_cell_angle_alpha	90
_cell_angle_beta	106.94
_cell_angle_gamma	90
loop_
_atom_site_label
_atom_site_type_symbol
_atom_site_fract_x
_atom_site_fract_y
_atom_site_fract_z
_atom_site_charge
Mof_Cu	Cu	0.19384	0.12252	0.84733	0.83
Mof_N 	N 	0.3519	0.2531	0.8862	-0.258
Mof_N 	N 	0.1124	0.4128	0.2579	-0.259
Mof_N 	N 	0.0857	0.0115	0.895	-0.245
Mof_N 	N 	0.7823	0.4737	0.0388	-0.125
Mof_C 	C 	0.3879	0.3703	0.8604	0.078
Mof_H 	H 	0.3306	0.3966	0.8218	-0.026
Mof_C 	C 	0.5031	0.455	0.8867	-0.14
Mof_H 	H 	0.5245	0.5319	0.8651	0.067
Mof_C 	C 	0.5892	0.4238	0.9473	0.055
Mof_C 	C 	0.5473	0.3041	0.9737	-0.132
Mof_H 	H 	0.5984	0.2781	0.0135	0.074
Mof_C 	C 	0.4323	0.2224	0.943	0.07
Mof_H 	H 	0.41	0.1425	0.9627	-0.029
Mof_C 	C 	0.7169	0.51	0.9778	0.061
Mof_C 	C 	0.7688	0.6186	0.9507	-0.123
Mof_H 	H 	0.7227	0.6448	0.9104	0.065
Mof_C 	C 	0.8915	0.6909	0.9835	0.051
Mof_C 	C 	0.9549	0.6521	0.0428	-0.131
Mof_H 	H 	0.0355	0.7003	0.0652	0.063
Mof_C 	C 	0.9037	0.5455	0.0699	0.054
Mof_C 	C 	0.9523	0.8046	0.9536	0.048
Mof_C 	C 	0.8812	0.8683	0.8977	-0.125
Mof_H 	H 	0.7883	0.8434	0.878	0.063
Mof_C 	C 	0.9487	0.9686	0.8713	0.058
Mof_H 	H 	0.8966	0.0102	0.8346	-0.018
Mof_C 	C 	0.0904	0.8512	0.979	-0.122
Mof_H 	H 	0.1433	0.8137	0.0165	0.071
Mof_C 	C 	0.9759	0.4996	0.1351	0.055
Mof_C 	C 	0.9178	0.3985	0.1642	-0.144
Mof_H 	H 	0.8311	0.3579	0.1441	0.075
Mof_C 	C 	0.989	0.3571	0.2238	0.068
Mof_H 	H 	0.9486	0.2855	0.2415	-0.027
Mof_C 	C 	0.1634	0.5126	0.228	0.078
Mof_H 	H 	0.2483	0.5548	0.2495	-0.036
Mof_C 	C 	0.1029	0.5593	0.1686	-0.161
Mof_H 	H 	0.1464	0.6293	0.1514	0.071
Mof_C 	C 	0.1512	0.952	0.9498	0.063
Mof_H 	H 	0.2431	0.9804	0.9694	-0.02
Mof_Cu	Cu	0.19384	0.37748	0.34733	0.831
Mof_N 	N 	0.3519	0.2469	0.3862	-0.257
Mof_N 	N 	0.1124	0.0872	0.7579	-0.259
Mof_N 	N 	0.0857	0.4885	0.395	-0.245
Mof_N 	N 	0.7823	0.0263	0.5388	-0.126
Mof_C 	C 	0.3879	0.1297	0.3604	0.078
Mof_H 	H 	0.3306	0.1034	0.3218	-0.026
Mof_C 	C 	0.5031	0.045	0.3867	-0.139
Mof_H 	H 	0.5245	0.9681	0.3651	0.066
Mof_C 	C 	0.5892	0.0762	0.4473	0.055
Mof_C 	C 	0.5473	0.1959	0.4737	-0.132
Mof_H 	H 	0.5984	0.2219	0.5135	0.074
Mof_C 	C 	0.4323	0.2776	0.443	0.07
Mof_H 	H 	0.41	0.3575	0.4627	-0.029
Mof_C 	C 	0.7169	0.99	0.4778	0.061
Mof_C 	C 	0.7688	0.8814	0.4507	-0.123
Mof_H 	H 	0.7227	0.8552	0.4104	0.065
Mof_C 	C 	0.8915	0.8091	0.4835	0.052
Mof_C 	C 	0.9549	0.8479	0.5428	-0.133
Mof_H 	H 	0.0355	0.7997	0.5652	0.065
Mof_C 	C 	0.9037	0.9545	0.5699	0.055
Mof_C 	C 	0.9523	0.6954	0.4536	0.049
Mof_C 	C 	0.8812	0.6317	0.3977	-0.126
Mof_H 	H 	0.7883	0.6566	0.378	0.063
Mof_C 	C 	0.9487	0.5314	0.3713	0.059
Mof_H 	H 	0.8966	0.4898	0.3346	-0.018
Mof_C 	C 	0.0904	0.6488	0.479	-0.124
Mof_H 	H 	0.1433	0.6863	0.5165	0.072
Mof_C 	C 	0.9759	0.0004	0.6351	0.054
Mof_C 	C 	0.9178	0.1015	0.6642	-0.143
Mof_H 	H 	0.8311	0.1421	0.6441	0.075
Mof_C 	C 	0.989	0.1429	0.7238	0.068
Mof_H 	H 	0.9486	0.2145	0.7415	-0.027
Mof_C 	C 	0.1634	0.9874	0.728	0.078
Mof_H 	H 	0.2483	0.9452	0.7495	-0.036
Mof_C 	C 	0.1029	0.9407	0.6686	-0.16
Mof_H 	H 	0.1464	0.8707	0.6514	0.071
Mof_C 	C 	0.1512	0.548	0.4498	0.064
Mof_H 	H 	0.2431	0.5196	0.4694	-0.02
Mof_Cu	Cu	0.80616	0.62252	0.65267	0.831
Mof_N 	N 	0.6481	0.7531	0.6138	-0.257
Mof_N 	N 	0.8876	0.9128	0.2421	-0.259
Mof_N 	N 	0.9143	0.5115	0.605	-0.245
Mof_N 	N 	0.2177	0.9737	0.4612	-0.126
Mof_C 	C 	0.6121	0.8703	0.6396	0.078
Mof_H 	H 	0.6694	0.8966	0.6782	-0.026
Mof_C 	C 	0.4969	0.955	0.6133	-0.139
Mof_H 	H 	0.4755	0.0319	0.6349	0.066
Mof_C 	C 	0.4108	0.9238	0.5527	0.055
Mof_C 	C 	0.4527	0.8041	0.5263	-0.132
Mof_H 	H 	0.4016	0.7781	0.4865	0.074
Mof_C 	C 	0.5677	0.7224	0.557	0.07
Mof_H 	H 	0.59	0.6425	0.5373	-0.029
Mof_C 	C 	0.2831	0.01	0.5222	0.061
Mof_C 	C 	0.2312	0.1186	0.5493	-0.123
Mof_H 	H 	0.2773	0.1448	0.5896	0.065
Mof_C 	C 	0.1085	0.1909	0.5165	0.052
Mof_C 	C 	0.0451	0.1521	0.4572	-0.133
Mof_H 	H 	0.9645	0.2003	0.4348	0.065
Mof_C 	C 	0.0963	0.0455	0.4301	0.055
Mof_C 	C 	0.0477	0.3046	0.5464	0.049
Mof_C 	C 	0.1188	0.3683	0.6023	-0.126
Mof_H 	H 	0.2117	0.3434	0.622	0.063
Mof_C 	C 	0.0513	0.4686	0.6287	0.059
Mof_H 	H 	0.1034	0.5102	0.6654	-0.018
Mof_C 	C 	0.9096	0.3512	0.521	-0.124
Mof_H 	H 	0.8567	0.3137	0.4835	0.072
Mof_C 	C 	0.0241	0.9996	0.3649	0.054
Mof_C 	C 	0.0822	0.8985	0.3358	-0.143
Mof_H 	H 	0.1689	0.8579	0.3559	0.075
Mof_C 	C 	0.011	0.8571	0.2762	0.068
Mof_H 	H 	0.0514	0.7855	0.2585	-0.027
Mof_C 	C 	0.8366	0.0126	0.272	0.078
Mof_H 	H 	0.7517	0.0548	0.2505	-0.036
Mof_C 	C 	0.8971	0.0593	0.3314	-0.16
Mof_H 	H 	0.8536	0.1293	0.3486	0.071
Mof_C 	C 	0.8488	0.452	0.5502	0.064
Mof_H 	H 	0.7569	0.4804	0.5306	-0.02
Mof_Cu	Cu	0.80616	0.87748	0.15267	0.831
Mof_N 	N 	0.6481	0.7469	0.1138	-0.257
Mof_N 	N 	0.8876	0.5872	0.7421	-0.259
Mof_N 	N 	0.9143	0.9885	0.105	-0.245
Mof_N 	N 	0.2177	0.5263	0.9612	-0.125
Mof_C 	C 	0.6121	0.6297	0.1396	0.078
Mof_H 	H 	0.6694	0.6034	0.1782	-0.026
Mof_C 	C 	0.4969	0.545	0.1133	-0.14
Mof_H 	H 	0.4755	0.4681	0.1349	0.067
Mof_C 	C 	0.4108	0.5762	0.0527	0.055
Mof_C 	C 	0.4527	0.6959	0.0263	-0.132
Mof_H 	H 	0.4016	0.7219	0.9865	0.074
Mof_C 	C 	0.5677	0.7776	0.057	0.07
Mof_H 	H 	0.59	0.8575	0.0373	-0.029
Mof_C 	C 	0.2831	0.49	0.0222	0.061
Mof_C 	C 	0.2312	0.3814	0.0493	-0.123
Mof_H 	H 	0.2773	0.3552	0.0896	0.065
Mof_C 	C 	0.1085	0.3091	0.0165	0.051
Mof_C 	C 	0.0451	0.3479	0.9572	-0.131
Mof_H 	H 	0.9645	0.2997	0.9348	0.063
Mof_C 	C 	0.0963	0.4545	0.9301	0.054
Mof_C 	C 	0.0477	0.1954	0.0464	0.048
Mof_C 	C 	0.1188	0.1317	0.1023	-0.125
Mof_H 	H 	0.2117	0.1566	0.122	0.063
Mof_C 	C 	0.0513	0.0314	0.1287	0.058
Mof_H 	H 	0.1034	0.9898	0.1654	-0.018
Mof_C 	C 	0.9096	0.1488	0.021	-0.122
Mof_H 	H 	0.8567	0.1863	0.9835	0.071
Mof_C 	C 	0.0241	0.5004	0.8649	0.055
Mof_C 	C 	0.0822	0.6015	0.8358	-0.144
Mof_H 	H 	0.1689	0.6421	0.8559	0.075
Mof_C 	C 	0.011	0.6429	0.7762	0.068
Mof_H 	H 	0.0514	0.7145	0.7585	-0.027
Mof_C 	C 	0.8366	0.4874	0.772	0.078
Mof_H 	H 	0.7517	0.4452	0.7505	-0.036
Mof_C 	C 	0.8971	0.4407	0.8314	-0.161
Mof_H 	H 	0.8536	0.3707	0.8486	0.071
Mof_C 	C 	0.8488	0.048	0.0502	0.063
Mof_H 	H 	0.7569	0.0196	0.0306	-0.02
_end
