data_functionalizedCrystal
_audit_creation_method	'EQeq! by Chris Wilmer'
_symmetry_space_group_name_H-M	'P1'
_symmetry_Int_Tables_number	1
_symmetry_cell_setting	triclinic
loop_
_symmetry_equiv_pos_as_xyz
  x,y,z
_cell_length_a	8.0135
_cell_length_b	17.658
_cell_length_c	13.8841
_cell_angle_alpha	90
_cell_angle_beta	90
_cell_angle_gamma	90
loop_
_atom_site_label
_atom_site_type_symbol
_atom_site_fract_x
_atom_site_fract_y
_atom_site_fract_z
_atom_site_charge
Mof_H 	H 	0.0646	0.2052	0.8544	0.054
Mof_H 	H 	0.7724	0.2049	0.8322	0.058
Mof_C 	C 	0.9164	0.3104	0.6581	0.079
Mof_H 	H 	0.9076	0.3611	0.6781	0.005
Mof_N 	N 	0.9627	0.2889	0.5717	-0.098
Mof_C 	C 	0.0998	0.39513	0.364	0.093
Mof_H 	H 	0.2116	0.4087	0.3751	-0.014
Mof_N 	N 	0.052	0.33498	0.31578	-0.223
Mof_N 	N 	0.8781	0.33564	0.31542	-0.218
Mof_C 	C 	0.8316	0.39616	0.3636	0.093
Mof_H 	H 	0.7202	0.4105	0.3743	-0.013
Mof_N 	N 	0.9662	0.43494	0.39549	-0.13
Mof_C 	C 	0.9673	0.50669	0.449	-0.054
Mof_H 	H 	0.8539	0.5274	0.4519	0.051
Mof_H 	H 	0.0386	0.5435	0.4158	0.053
Mof_H 	H 	0.4354	0.7948	0.3544	0.056
Mof_H 	H 	0.7276	0.7951	0.3322	0.057
Mof_C 	C 	0.5836	0.6896	0.1581	0.079
Mof_H 	H 	0.5924	0.6389	0.1781	0.005
Mof_N 	N 	0.5373	0.7111	0.0717	-0.098
Mof_C 	C 	0.4002	0.60487	0.864	0.093
Mof_H 	H 	0.2884	0.5913	0.8751	-0.014
Mof_N 	N 	0.448	0.66502	0.81578	-0.223
Mof_N 	N 	0.6219	0.66436	0.81542	-0.218
Mof_C 	C 	0.6684	0.60384	0.8636	0.093
Mof_H 	H 	0.7798	0.5895	0.8743	-0.013
Mof_N 	N 	0.5338	0.56506	0.89549	-0.13
Mof_C 	C 	0.5327	0.49331	0.949	-0.054
Mof_H 	H 	0.6461	0.4726	0.9519	0.051
Mof_H 	H 	0.4614	0.4565	0.9158	0.053
Mof_H 	H 	0.9354	0.7052	0.1456	0.054
Mof_H 	H 	0.2276	0.7049	0.1678	0.058
Mof_C 	C 	0.0836	0.8104	0.3419	0.079
Mof_H 	H 	0.0924	0.8611	0.3219	0.005
Mof_N 	N 	0.0373	0.7889	0.4283	-0.098
Mof_C 	C 	0.9002	0.89513	0.636	0.092
Mof_H 	H 	0.7884	0.9087	0.6249	-0.014
Mof_N 	N 	0.948	0.83498	0.68422	-0.223
Mof_N 	N 	0.1219	0.83564	0.68458	-0.217
Mof_C 	C 	0.1684	0.89616	0.6364	0.093
Mof_H 	H 	0.2798	0.9105	0.6257	-0.013
Mof_N 	N 	0.0338	0.93494	0.60451	-0.13
Mof_C 	C 	0.0327	0.00669	0.551	-0.056
Mof_H 	H 	0.1461	0.0274	0.5481	0.052
Mof_H 	H 	0.9614	0.0435	0.5842	0.054
Mof_H 	H 	0.5646	0.2948	0.6456	0.056
Mof_H 	H 	0.2724	0.2951	0.6678	0.057
Mof_C 	C 	0.4164	0.1896	0.8419	0.079
Mof_H 	H 	0.4076	0.1389	0.8219	0.005
Mof_N 	N 	0.4627	0.2111	0.9283	-0.098
Mof_C 	C 	0.5998	0.10487	0.136	0.093
Mof_H 	H 	0.7116	0.0913	0.1249	-0.014
Mof_N 	N 	0.552	0.16502	0.18422	-0.223
Mof_N 	N 	0.3781	0.16436	0.18458	-0.218
Mof_C 	C 	0.3316	0.10384	0.1364	0.093
Mof_H 	H 	0.2202	0.0895	0.1257	-0.013
Mof_N 	N 	0.4662	0.06506	0.10451	-0.131
Mof_C 	C 	0.4673	0.99331	0.051	-0.054
Mof_H 	H 	0.3539	0.9726	0.0481	0.052
Mof_H 	H 	0.5386	0.9565	0.0842	0.053
Mof_H 	H 	0.9354	0.7948	0.1456	0.054
Mof_H 	H 	0.2276	0.7951	0.1678	0.058
Mof_C 	C 	0.0836	0.6896	0.3419	0.079
Mof_H 	H 	0.0924	0.6389	0.3219	0.005
Mof_N 	N 	0.0373	0.7111	0.4283	-0.098
Mof_C 	C 	0.9002	0.60487	0.636	0.093
Mof_H 	H 	0.7884	0.5913	0.6249	-0.014
Mof_N 	N 	0.948	0.66502	0.68422	-0.223
Mof_N 	N 	0.1219	0.66436	0.68458	-0.218
Mof_C 	C 	0.1684	0.60384	0.6364	0.093
Mof_H 	H 	0.2798	0.5895	0.6257	-0.013
Mof_N 	N 	0.0338	0.56506	0.60451	-0.13
Mof_C 	C 	0.0327	0.49331	0.551	-0.054
Mof_H 	H 	0.1461	0.4726	0.5481	0.051
Mof_H 	H 	0.9614	0.4565	0.5842	0.053
Mof_H 	H 	0.5646	0.2052	0.6456	0.056
Mof_H 	H 	0.2724	0.2049	0.6678	0.057
Mof_C 	C 	0.4164	0.3104	0.8419	0.079
Mof_H 	H 	0.4076	0.3611	0.8219	0.005
Mof_N 	N 	0.4627	0.2889	0.9283	-0.098
Mof_C 	C 	0.5998	0.39513	0.136	0.093
Mof_H 	H 	0.7116	0.4087	0.1249	-0.014
Mof_N 	N 	0.552	0.33498	0.18422	-0.223
Mof_N 	N 	0.3781	0.33564	0.18458	-0.218
Mof_C 	C 	0.3316	0.39616	0.1364	0.093
Mof_H 	H 	0.2202	0.4105	0.1257	-0.013
Mof_N 	N 	0.4662	0.43494	0.10451	-0.13
Mof_C 	C 	0.4673	0.50669	0.051	-0.054
Mof_H 	H 	0.3539	0.5274	0.0481	0.051
Mof_H 	H 	0.5386	0.5435	0.0842	0.053
Mof_H 	H 	0.0646	0.2948	0.8544	0.054
Mof_H 	H 	0.7724	0.2951	0.8322	0.058
Mof_C 	C 	0.9164	0.1896	0.6581	0.079
Mof_H 	H 	0.9076	0.1389	0.6781	0.005
Mof_N 	N 	0.9627	0.2111	0.5717	-0.098
Mof_C 	C 	0.0998	0.10487	0.364	0.092
Mof_H 	H 	0.2116	0.0913	0.3751	-0.014
Mof_N 	N 	0.052	0.16502	0.31578	-0.223
Mof_N 	N 	0.8781	0.16436	0.31542	-0.217
Mof_C 	C 	0.8316	0.10384	0.3636	0.093
Mof_H 	H 	0.7202	0.0895	0.3743	-0.013
Mof_N 	N 	0.9662	0.06506	0.39549	-0.13
Mof_C 	C 	0.9673	0.99331	0.449	-0.056
Mof_H 	H 	0.8539	0.9726	0.4519	0.052
Mof_H 	H 	0.0386	0.9565	0.4158	0.054
Mof_H 	H 	0.4354	0.7052	0.3544	0.056
Mof_H 	H 	0.7276	0.7049	0.3322	0.057
Mof_C 	C 	0.5836	0.8104	0.1581	0.079
Mof_H 	H 	0.5924	0.8611	0.1781	0.005
Mof_N 	N 	0.5373	0.7889	0.0717	-0.098
Mof_C 	C 	0.4002	0.89513	0.864	0.093
Mof_H 	H 	0.2884	0.9087	0.8751	-0.014
Mof_N 	N 	0.448	0.83498	0.81578	-0.223
Mof_N 	N 	0.6219	0.83564	0.81542	-0.218
Mof_C 	C 	0.6684	0.89616	0.8636	0.093
Mof_H 	H 	0.7798	0.9105	0.8743	-0.013
Mof_N 	N 	0.5338	0.93494	0.89549	-0.131
Mof_C 	C 	0.5327	0.00669	0.949	-0.054
Mof_H 	H 	0.6461	0.0274	0.9519	0.052
Mof_H 	H 	0.4614	0.0435	0.9158	0.053
Mof_Zn	Zn	0.21439	0.25	0.25202	1.17
Mof_C 	C 	0.1047	0.25	0.0405	0.089
Mof_H 	H 	0.2179	0.25	0.0227	0.001
Mof_N 	N 	0.0515	0.25	0.1281	-0.229
Mof_N 	N 	0.8764	0.25	0.1237	-0.226
Mof_C 	C 	0.8372	0.25	0.0327	0.09
Mof_H 	H 	0.7276	0.25	0.0087	0.003
Mof_N 	N 	0.9764	0.25	0.9778	-0.129
Mof_C 	C 	0.9997	0.25	0.8726	-0.049
Mof_C 	C 	0.8384	0.25	0.8166	-0.062
Mof_N 	N 	0.8832	0.25	0.7144	-0.129
Mof_Zn	Zn	0.28561	0.75	0.75202	1.17
Mof_C 	C 	0.3953	0.75	0.5405	0.09
Mof_H 	H 	0.2821	0.75	0.5227	0.001
Mof_N 	N 	0.4485	0.75	0.6281	-0.229
Mof_N 	N 	0.6236	0.75	0.6237	-0.226
Mof_C 	C 	0.6628	0.75	0.5327	0.09
Mof_H 	H 	0.7724	0.75	0.5087	0.002
Mof_N 	N 	0.5236	0.75	0.4778	-0.129
Mof_C 	C 	0.5003	0.75	0.3726	-0.054
Mof_C 	C 	0.6616	0.75	0.3166	-0.06
Mof_N 	N 	0.6168	0.75	0.2144	-0.13
Mof_Zn	Zn	0.78561	0.75	0.74798	1.17
Mof_C 	C 	0.8953	0.75	0.9595	0.089
Mof_H 	H 	0.7821	0.75	0.9773	0.001
Mof_N 	N 	0.9485	0.75	0.8719	-0.229
Mof_N 	N 	0.1236	0.75	0.8763	-0.226
Mof_C 	C 	0.1628	0.75	0.9673	0.09
Mof_H 	H 	0.2724	0.75	0.9913	0.003
Mof_N 	N 	0.0236	0.75	0.0222	-0.129
Mof_C 	C 	0.0003	0.75	0.1274	-0.049
Mof_C 	C 	0.1616	0.75	0.1834	-0.062
Mof_N 	N 	0.1168	0.75	0.2856	-0.129
Mof_Zn	Zn	0.71439	0.25	0.24798	1.17
Mof_C 	C 	0.6047	0.25	0.4595	0.09
Mof_H 	H 	0.7179	0.25	0.4773	0.001
Mof_N 	N 	0.5515	0.25	0.3719	-0.229
Mof_N 	N 	0.3764	0.25	0.3763	-0.226
Mof_C 	C 	0.3372	0.25	0.4673	0.09
Mof_H 	H 	0.2276	0.25	0.4913	0.002
Mof_N 	N 	0.4764	0.25	0.5222	-0.129
Mof_C 	C 	0.4997	0.25	0.6274	-0.054
Mof_C 	C 	0.3384	0.25	0.6834	-0.06
Mof_N 	N 	0.3832	0.25	0.7856	-0.13
_end
