data_functionalizedCrystal
_audit_creation_method	'EQeq! by Chris Wilmer'
_symmetry_space_group_name_H-M	'P1'
_symmetry_Int_Tables_number	1
_symmetry_cell_setting	triclinic
loop_
_symmetry_equiv_pos_as_xyz
  x,y,z
_cell_length_a	10.935
_cell_length_b	17.915
_cell_length_c	16.953
_cell_angle_alpha	89.832
_cell_angle_beta	90
_cell_angle_gamma	90
loop_
_atom_site_label
_atom_site_type_symbol
_atom_site_fract_x
_atom_site_fract_y
_atom_site_fract_z
_atom_site_charge
Mof_Nd	Nd	0.6079	0.82889	0.12374	2.552
Mof_Nd	Nd	0.95509	0.33278	0.47273	2.379
Mof_Nd	Nd	0.41127	0.83103	0.90892	2.318
Mof_Nd	Nd	0.04491	0.33278	0.97273	2.142
Mof_Nd	Nd	0.13993	0.3254	0.2615	2.568
Mof_Nd	Nd	0.3921	0.82889	0.62374	2.538
Mof_Nd	Nd	0.86007	0.3254	0.7615	2.535
Mof_Nd	Nd	0.58873	0.83103	0.40892	2.584
Mof_H 	H 	0.7356	0.0116	0.0758	0.01
Mof_H 	H 	0.7912	0.1616	0.4127	0.002
Mof_H 	H 	0.2644	0.0116	0.5758	0.028
Mof_H 	H 	0.5698	0.7863	0.7668	0.211
Mof_H 	H 	0.1601	0.1334	0.5559	0.022
Mof_H 	H 	0.5702	0.873	0.7658	0.205
Mof_H 	H 	0.6006	0.0265	0.7153	0.048
Mof_H 	H 	0.2408	0.6632	0.9727	-0.139
Mof_H 	H 	0.8624	0.5439	0.4895	0.024
Mof_H 	H 	0.2775	0.5116	0.3041	0.005
Mof_H 	H 	0.4302	0.7863	0.2668	0.217
Mof_H 	H 	0.0883	0.5167	0.6539	0.04
Mof_H 	H 	0.2088	0.1616	0.9127	-0.026
Mof_H 	H 	0.7225	0.5116	0.8041	-0.002
Mof_H 	H 	0.4298	0.873	0.2658	0.211
Mof_H 	H 	0.8399	0.1334	0.0559	-0.008
Mof_H 	H 	0.3994	0.0265	0.2153	0.049
Mof_H 	H 	0.9117	0.5167	0.1539	0.06
Mof_H 	H 	0.6727	0.0444	0.3963	0.038
Mof_H 	H 	0.6184	0.6312	0.8189	0.044
Mof_H 	H 	0.3119	0.1518	0.2259	-0.001
Mof_H 	H 	0.3273	0.0444	0.8963	0.017
Mof_H 	H 	0.7592	0.6632	0.4727	-0.014
Mof_H 	H 	0.8035	0.6373	0.1415	0.024
Mof_H 	H 	0.1376	0.5439	0.9895	-0.103
Mof_H 	H 	0.6881	0.1518	0.7259	-0.005
Mof_H 	H 	0.1965	0.6373	0.6415	0.005
Mof_H 	H 	0.3816	0.6312	0.3189	0.031
Mof_C 	C 	0.2372	0.1402	0.1167	-0.186
Mof_C 	C 	0.7628	0.1402	0.6167	-0.191
Mof_C 	C 	0.1888	0.4508	0.1169	0.584
Mof_C 	C 	0.7267	0.5406	0.8495	0.033
Mof_C 	C 	0.8112	0.4508	0.6169	0.575
Mof_C 	C 	0.3017	0.121	0.1823	0.047
Mof_C 	C 	0.8145	0.2108	0.9143	0.581
Mof_C 	C 	0.6983	0.121	0.6823	0.043
Mof_C 	C 	0.9014	0.4392	0.298	0.486
Mof_C 	C 	0.2979	0.7091	0.7696	0.539
Mof_C 	C 	0.6926	0.6435	0.9266	-0.108
Mof_C 	C 	0.1807	0.2138	0.0996	0.535
Mof_C 	C 	0.7021	0.7091	0.2696	0.55
Mof_C 	C 	0.7926	0.1098	0.0178	0.188
Mof_C 	C 	0.7598	0.6356	0.2545	-0.192
Mof_C 	C 	0.6353	0.9402	0.5798	0.48
Mof_C 	C 	0.3074	0.6435	0.4266	-0.159
Mof_C 	C 	0.1953	0.5628	0.0244	0.167
Mof_C 	C 	0.3647	0.9402	0.0798	0.475
Mof_C 	C 	0.3007	0.9559	0.7642	0.5
Mof_C 	C 	0.3317	0.6104	0.3575	-0.002
Mof_C 	C 	0.6993	0.9559	0.2642	0.517
Mof_C 	C 	0.725	0.0642	0.3584	-0.011
Mof_C 	C 	0.664	0.6473	0.575	-0.179
Mof_C 	C 	0.5887	0.7137	0.5847	0.48
Mof_C 	C 	0.792	0.1332	0.3669	0.017
Mof_C 	C 	0.8553	0.1519	0.3024	-0.151
Mof_C 	C 	0.2402	0.6356	0.7545	-0.189
Mof_C 	C 	0.8513	0.5116	0.2678	-0.142
Mof_C 	C 	0.336	0.6473	0.075	-0.21
Mof_C 	C 	0.8047	0.5628	0.5244	0.001
Mof_C 	C 	0.3968	0.9468	0.452	0.454
Mof_C 	C 	0.6541	0.7184	0.9569	0.334
Mof_C 	C 	0.678	0.0138	0.6074	-0.122
Mof_C 	C 	0.7716	0.1374	0.9462	-0.331
Mof_C 	C 	0.2733	0.5406	0.3495	0.024
Mof_C 	C 	0.322	0.0138	0.1074	-0.121
Mof_C 	C 	0.8193	0.2138	0.5996	0.542
Mof_C 	C 	0.1318	0.5397	0.6942	-0.024
Mof_C 	C 	0.3459	0.7184	0.4569	0.512
Mof_C 	C 	0.2548	0.6313	0.0152	0.178
Mof_C 	C 	0.6032	0.9468	0.952	0.323
Mof_C 	C 	0.1919	0.6107	0.6886	0.045
Mof_C 	C 	0.9354	0.2188	0.2901	0.454
Mof_C 	C 	0.3515	0.0484	0.1762	-0.019
Mof_C 	C 	0.2512	0.0315	0.7862	-0.127
Mof_C 	C 	0.212	0.5207	0.4134	-0.177
Mof_C 	C 	0.6728	0.0163	0.9635	-0.219
Mof_C 	C 	0.6683	0.6104	0.8575	-0.045
Mof_C 	C 	0.6485	0.0484	0.6762	-0.026
Mof_C 	C 	0.2074	0.1098	0.5178	0.029
Mof_C 	C 	0.8682	0.5397	0.1942	-0.016
Mof_C 	C 	0.4113	0.7137	0.0847	0.493
Mof_C 	C 	0.275	0.0642	0.8584	-0.025
Mof_C 	C 	0.2284	0.1374	0.4462	-0.18
Mof_C 	C 	0.267	0.0388	0.529	-0.014
Mof_C 	C 	0.7488	0.0315	0.2862	-0.13
Mof_C 	C 	0.3272	0.0163	0.4635	-0.127
Mof_C 	C 	0.0646	0.2188	0.7901	0.443
Mof_C 	C 	0.1447	0.1519	0.8024	-0.154
Mof_C 	C 	0.2333	0.5279	0.0908	-0.216
Mof_C 	C 	0.0986	0.4392	0.798	0.477
Mof_C 	C 	0.733	0.0388	0.029	0.076
Mof_C 	C 	0.8081	0.6107	0.1886	0.052
Mof_C 	C 	0.788	0.5207	0.9134	-0.175
Mof_C 	C 	0.1487	0.5116	0.7678	-0.141
Mof_C 	C 	0.208	0.1332	0.8669	0.011
Mof_C 	C 	0.1415	0.4521	0.4296	0.496
Mof_C 	C 	0.1855	0.2108	0.4143	0.55
Mof_C 	C 	0.7667	0.5279	0.5908	-0.177
Mof_C 	C 	0.7452	0.6313	0.5152	0.02
Mof_C 	C 	0.8585	0.4521	0.9296	0.492
Mof_S 	S 	0.3188	0.08131	0.38967	0.084
Mof_S 	S 	0.6812	0.08131	0.88967	0.104
Mof_S 	S 	0.2331	0.06963	0.05012	0.154
Mof_S 	S 	0.226	0.57054	0.82805	0.042
Mof_S 	S 	0.774	0.57054	0.32805	0.07
Mof_S 	S 	0.6667	0.57869	0.6442	0.077
Mof_S 	S 	0.1631	0.08588	0.72825	0.064
Mof_S 	S 	0.8369	0.08588	0.22825	0.078
Mof_S 	S 	0.2181	0.58771	0.48552	0.073
Mof_S 	S 	0.7669	0.06963	0.55012	0.082
Mof_S 	S 	0.7819	0.58771	0.98552	-0.029
Mof_S 	S 	0.3333	0.57869	0.1442	0.115
Mof_O 	O 	0.1421	0.3997	0.377	-0.699
Mof_O 	O 	0.4172	0.7612	0.0302	-0.617
Mof_O 	O 	0.2058	0.2647	0.1476	-0.652
Mof_O 	O 	0.351	0.7192	0.8344	-0.579
Mof_O 	O 	0.3399	0.9224	0.0097	-0.5
Mof_O 	O 	0.3226	0.7349	0.5257	-0.589
Mof_O 	O 	0.8851	0.2199	0.5402	-0.593
Mof_O 	O 	0.1157	0.4253	0.8697	-0.54
Mof_O 	O 	0.7924	0.2266	0.8452	-0.655
Mof_O 	O 	0.7935	0.4337	0.6877	-0.621
Mof_O 	O 	0.5958	0.7583	0.9073	-0.55
Mof_O 	O 	0.5487	0.9377	0.886	-0.511
Mof_O 	O 	0.4513	0.9377	0.386	-0.546
Mof_O 	O 	0.9578	0.3985	0.2493	-0.589
Mof_O 	O 	0.6601	0.9224	0.5097	-0.585
Mof_O 	O 	0.5169	0.8298	0.7673	-0.671
Mof_O 	O 	0.0145	0.2284	0.725	-0.525
Mof_O 	O 	0.948	0.2624	0.3475	-0.657
Mof_O 	O 	0.598	0.8998	0.0042	-0.578
Mof_O 	O 	0.4042	0.7583	0.4073	-0.591
Mof_O 	O 	0.0422	0.3985	0.7493	-0.589
Mof_O 	O 	0.7137	0.7568	0.2162	-0.657
Mof_O 	O 	0.2076	0.2266	0.3452	-0.644
Mof_O 	O 	0.4198	0.9008	0.1272	-0.584
Mof_O 	O 	0.052	0.2624	0.8475	-0.638
Mof_O 	O 	0.6774	0.7349	0.0257	-0.458
Mof_O 	O 	0.3084	0.9106	0.8205	-0.634
Mof_O 	O 	0.6762	0.9425	0.1945	-0.601
Mof_O 	O 	0.0857	0.4459	0.4905	-0.543
Mof_O 	O 	0.5315	0.7212	0.6491	-0.527
Mof_O 	O 	0.5828	0.7612	0.5302	-0.692
Mof_O 	O 	0.649	0.7192	0.3344	-0.594
Mof_O 	O 	0.402	0.8998	0.5042	-0.708
Mof_O 	O 	0.8732	0.2512	0.9622	-0.636
Mof_O 	O 	0.5802	0.9008	0.6272	-0.594
Mof_O 	O 	0.9855	0.2284	0.225	-0.524
Mof_O 	O 	0.2065	0.4337	0.1877	-0.616
Mof_O 	O 	0.8618	0.4123	0.5682	-0.659
Mof_O 	O 	0.1149	0.2199	0.0402	-0.506
Mof_O 	O 	0.2863	0.7568	0.7162	-0.655
Mof_O 	O 	0.1382	0.4123	0.0682	-0.576
Mof_O 	O 	0.9143	0.4459	0.9905	-0.563
Mof_O 	O 	0.1268	0.2512	0.4622	-0.612
Mof_O 	O 	0.8579	0.3997	0.877	-0.691
Mof_O 	O 	0.7942	0.2647	0.6476	-0.671
Mof_O 	O 	0.6916	0.9106	0.3205	-0.652
Mof_O 	O 	0.3238	0.9425	0.6945	-0.602
Mof_O 	O 	0.8843	0.4253	0.3697	-0.551
Mof_O 	O 	0.4831	0.8298	0.2673	-0.69
Mof_O 	O 	0.4685	0.7212	0.1491	-0.525
_end
