data_functionalizedCrystal
_audit_creation_method	'EQeq! by Chris Wilmer'
_symmetry_space_group_name_H-M	'P1'
_symmetry_Int_Tables_number	1
_symmetry_cell_setting	triclinic
loop_
_symmetry_equiv_pos_as_xyz
  x,y,z
_cell_length_a	19.702
_cell_length_b	18.1181
_cell_length_c	14.3185
_cell_angle_alpha	90
_cell_angle_beta	97.583
_cell_angle_gamma	90
loop_
_atom_site_label
_atom_site_type_symbol
_atom_site_fract_x
_atom_site_fract_y
_atom_site_fract_z
_atom_site_charge
Mof_Mn	Mn	0.2478	0.85554	0.05781	0.926
Mof_Mn	Mn	0.29284	0.85659	0.39312	0.924
Mof_Mn	Mn	0.27325	0.99025	0.22796	0.866
Mof_C 	C 	0.826	0.9806	0.9111	0.416
Mof_C 	C 	0.884	0.962	0.9858	-0.242
Mof_C 	C 	0.9072	0.0131	0.0537	0.209
Mof_H 	H 	0.8858	0.0587	0.0551	-0.028
Mof_C 	C 	0.9163	0.8939	0.9847	0.209
Mof_H 	H 	0.9018	0.8596	0.9381	-0.029
Mof_C 	C 	0.9632	0.996	0.1204	-0.339
Mof_H 	H 	0.9798	0.0306	0.1656	0.165
Mof_C 	C 	0.9703	0.8779	0.0536	-0.342
Mof_H 	H 	0.991	0.8317	0.055	0.16
Mof_C 	C 	0.993	0.9295	0.1192	0.357
Mof_C 	C 	0.0487	0.8601	0.2479	0.255
Mof_C 	C 	0.9884	0.8413	0.2821	-0.237
Mof_H 	H 	0.9475	0.8649	0.2602	0.121
Mof_C 	C 	0.1111	0.8272	0.2818	-0.178
Mof_C 	C 	0.1733	0.8517	0.2369	0.427
Mof_C 	C 	0.9907	0.7861	0.3503	0.103
Mof_H 	H 	0.9506	0.7712	0.3726	-0.002
Mof_C 	C 	0.1118	0.7743	0.3521	0.021
Mof_C 	C 	0.1772	0.7367	0.3935	0.313
Mof_C 	C 	0.0515	0.7541	0.3843	-0.131
Mof_H 	H 	0.0523	0.7177	0.4303	0.089
Mof_C 	C 	0.6657	0.9726	0.6	0.405
Mof_C 	C 	0.6217	0.9555	0.5121	-0.256
Mof_C 	C 	0.5806	0.0083	0.4651	0.216
Mof_H 	H 	0.5818	0.0563	0.4883	-0.029
Mof_C 	C 	0.6191	0.8831	0.475	0.198
Mof_H 	H 	0.6477	0.8466	0.504	-0.027
Mof_C 	C 	0.5378	0.9917	0.3845	-0.336
Mof_H 	H 	0.5106	0.0284	0.3535	0.164
Mof_C 	C 	0.5735	0.8665	0.3944	-0.339
Mof_H 	H 	0.5697	0.8183	0.3718	0.154
Mof_C 	C 	0.5348	0.9212	0.3492	0.352
Mof_C 	C 	0.4916	0.8525	0.2099	0.272
Mof_C 	C 	0.5519	0.8321	0.1782	-0.263
Mof_H 	H 	0.5931	0.8542	0.2024	0.127
Mof_C 	C 	0.429	0.822	0.1732	-0.194
Mof_C 	C 	0.3667	0.8471	0.2148	0.444
Mof_C 	C 	0.5501	0.7784	0.11	0.122
Mof_H 	H 	0.5905	0.7637	0.0886	-0.01
Mof_C 	C 	0.4289	0.7686	0.1019	0.026
Mof_C 	C 	0.3628	0.7338	0.0573	0.328
Mof_C 	C 	0.4897	0.7461	0.0733	-0.145
Mof_H 	H 	0.4896	0.7088	0.0287	0.098
Mof_O 	O 	0.789	0.0351	0.9239	-0.447
Mof_O 	O 	0.8138	0.9419	0.8383	-0.361
Mof_O 	O 	0.0513	0.9166	0.1833	-0.308
Mof_O 	O 	0.1823	0.8224	0.1618	-0.371
Mof_O 	O 	0.20918	0.903	0.2797	-0.44
Mof_O 	O 	0.23355	0.76	0.3694	-0.368
Mof_O 	O 	0.1718	0.6856	0.4521	-0.36
Mof_O 	O 	0.7032	0.9265	0.6445	-0.352
Mof_O 	O 	0.6647	0.0375	0.6332	-0.449
Mof_O 	O 	0.4872	0.9116	0.2709	-0.316
Mof_O 	O 	0.35656	0.8192	0.2893	-0.375
Mof_O 	O 	0.33151	0.8988	0.1714	-0.45
Mof_O 	O 	0.30703	0.7578	0.0802	-0.374
Mof_O 	O 	0.3681	0.6841	0.9985	-0.37
Mof_Mn	Mn	0.7522	0.35554	0.44219	0.927
Mof_Mn	Mn	0.70716	0.35659	0.10688	0.925
Mof_Mn	Mn	0.72675	0.49025	0.27204	0.867
Mof_C 	C 	0.174	0.4806	0.5889	0.419
Mof_C 	C 	0.116	0.462	0.5142	-0.25
Mof_C 	C 	0.0928	0.5131	0.4463	0.221
Mof_H 	H 	0.1142	0.5587	0.4449	-0.032
Mof_C 	C 	0.0837	0.3939	0.5153	0.218
Mof_H 	H 	0.0982	0.3596	0.5619	-0.032
Mof_C 	C 	0.0368	0.496	0.3796	-0.353
Mof_H 	H 	0.0202	0.5306	0.3344	0.171
Mof_C 	C 	0.0297	0.3779	0.4464	-0.352
Mof_H 	H 	0.009	0.3317	0.445	0.163
Mof_C 	C 	0.007	0.4295	0.3808	0.364
Mof_C 	C 	0.9513	0.3601	0.2521	0.258
Mof_C 	C 	0.0116	0.3413	0.2179	-0.239
Mof_H 	H 	0.0525	0.3649	0.2398	0.121
Mof_C 	C 	0.8889	0.3272	0.2182	-0.179
Mof_C 	C 	0.8267	0.3517	0.2631	0.427
Mof_C 	C 	0.0093	0.2861	0.1497	0.102
Mof_H 	H 	0.0494	0.2712	0.1274	-0.002
Mof_C 	C 	0.8882	0.2743	0.1479	0.02
Mof_C 	C 	0.8228	0.2367	0.1065	0.313
Mof_C 	C 	0.9485	0.2541	0.1157	-0.129
Mof_H 	H 	0.9477	0.2177	0.0697	0.089
Mof_C 	C 	0.3343	0.4726	0.9	0.404
Mof_C 	C 	0.3783	0.4555	0.9879	-0.256
Mof_C 	C 	0.4194	0.5083	0.0349	0.217
Mof_H 	H 	0.4182	0.5563	0.0117	-0.029
Mof_C 	C 	0.3809	0.3831	0.025	0.196
Mof_H 	H 	0.3523	0.3466	0.996	-0.026
Mof_C 	C 	0.4622	0.4917	0.1155	-0.337
Mof_H 	H 	0.4894	0.5284	0.1465	0.164
Mof_C 	C 	0.4265	0.3665	0.1056	-0.339
Mof_H 	H 	0.4303	0.3183	0.1282	0.153
Mof_C 	C 	0.4652	0.4212	0.1508	0.352
Mof_C 	C 	0.5084	0.3525	0.2901	0.272
Mof_C 	C 	0.4481	0.3321	0.3218	-0.263
Mof_H 	H 	0.4069	0.3542	0.2976	0.127
Mof_C 	C 	0.571	0.322	0.3268	-0.194
Mof_C 	C 	0.6333	0.3471	0.2852	0.444
Mof_C 	C 	0.4499	0.2784	0.39	0.122
Mof_H 	H 	0.4095	0.2637	0.4114	-0.01
Mof_C 	C 	0.5711	0.2686	0.3981	0.026
Mof_C 	C 	0.6372	0.2338	0.4427	0.328
Mof_C 	C 	0.5103	0.2461	0.4267	-0.145
Mof_H 	H 	0.5104	0.2088	0.4713	0.098
Mof_O 	O 	0.211	0.5351	0.5761	-0.448
Mof_O 	O 	0.1862	0.4419	0.6617	-0.362
Mof_O 	O 	0.9487	0.4166	0.3167	-0.31
Mof_O 	O 	0.8177	0.3224	0.3382	-0.371
Mof_O 	O 	0.79082	0.403	0.2203	-0.439
Mof_O 	O 	0.76645	0.26	0.1306	-0.368
Mof_O 	O 	0.8282	0.1856	0.0479	-0.36
Mof_O 	O 	0.2968	0.4265	0.8555	-0.351
Mof_O 	O 	0.3353	0.5375	0.8668	-0.448
Mof_O 	O 	0.5128	0.4116	0.2291	-0.316
Mof_O 	O 	0.64344	0.3192	0.2107	-0.375
Mof_O 	O 	0.66849	0.3988	0.3286	-0.45
Mof_O 	O 	0.69297	0.2578	0.4198	-0.374
Mof_O 	O 	0.6319	0.1841	0.5015	-0.369
Mof_Mn	Mn	0.7522	0.14446	0.94219	0.927
Mof_Mn	Mn	0.70716	0.14341	0.60688	0.925
Mof_Mn	Mn	0.72675	0.00975	0.77204	0.866
Mof_C 	C 	0.174	0.0194	0.0889	0.416
Mof_C 	C 	0.116	0.038	0.0142	-0.242
Mof_C 	C 	0.0928	0.9869	0.9463	0.209
Mof_H 	H 	0.1142	0.9413	0.9449	-0.028
Mof_C 	C 	0.0837	0.1061	0.0153	0.209
Mof_H 	H 	0.0982	0.1404	0.0619	-0.029
Mof_C 	C 	0.0368	0.004	0.8796	-0.339
Mof_H 	H 	0.0202	0.9694	0.8344	0.165
Mof_C 	C 	0.0297	0.1221	0.9464	-0.342
Mof_H 	H 	0.009	0.1683	0.945	0.16
Mof_C 	C 	0.007	0.0705	0.8808	0.357
Mof_C 	C 	0.9513	0.1399	0.7521	0.255
Mof_C 	C 	0.0116	0.1587	0.7179	-0.237
Mof_H 	H 	0.0525	0.1351	0.7398	0.121
Mof_C 	C 	0.8889	0.1728	0.7182	-0.178
Mof_C 	C 	0.8267	0.1483	0.7631	0.427
Mof_C 	C 	0.0093	0.2139	0.6497	0.103
Mof_H 	H 	0.0494	0.2288	0.6274	-0.002
Mof_C 	C 	0.8882	0.2257	0.6479	0.021
Mof_C 	C 	0.8228	0.2633	0.6065	0.313
Mof_C 	C 	0.9485	0.2459	0.6157	-0.131
Mof_H 	H 	0.9477	0.2823	0.5697	0.089
Mof_C 	C 	0.3343	0.0274	0.4	0.405
Mof_C 	C 	0.3783	0.0445	0.4879	-0.256
Mof_C 	C 	0.4194	0.9917	0.5349	0.216
Mof_H 	H 	0.4182	0.9437	0.5117	-0.029
Mof_C 	C 	0.3809	0.1169	0.525	0.198
Mof_H 	H 	0.3523	0.1534	0.496	-0.027
Mof_C 	C 	0.4622	0.0083	0.6155	-0.336
Mof_H 	H 	0.4894	0.9716	0.6465	0.164
Mof_C 	C 	0.4265	0.1335	0.6056	-0.339
Mof_H 	H 	0.4303	0.1817	0.6282	0.154
Mof_C 	C 	0.4652	0.0788	0.6508	0.352
Mof_C 	C 	0.5084	0.1475	0.7901	0.272
Mof_C 	C 	0.4481	0.1679	0.8218	-0.263
Mof_H 	H 	0.4069	0.1458	0.7976	0.127
Mof_C 	C 	0.571	0.178	0.8268	-0.194
Mof_C 	C 	0.6333	0.1529	0.7852	0.444
Mof_C 	C 	0.4499	0.2216	0.89	0.122
Mof_H 	H 	0.4095	0.2363	0.9114	-0.01
Mof_C 	C 	0.5711	0.2314	0.8981	0.026
Mof_C 	C 	0.6372	0.2662	0.9427	0.328
Mof_C 	C 	0.5103	0.2539	0.9267	-0.145
Mof_H 	H 	0.5104	0.2912	0.9713	0.098
Mof_O 	O 	0.211	0.9649	0.0761	-0.447
Mof_O 	O 	0.1862	0.0581	0.1617	-0.361
Mof_O 	O 	0.9487	0.0834	0.8167	-0.308
Mof_O 	O 	0.8177	0.1776	0.8382	-0.371
Mof_O 	O 	0.79082	0.097	0.7203	-0.44
Mof_O 	O 	0.76645	0.24	0.6306	-0.368
Mof_O 	O 	0.8282	0.3144	0.5479	-0.36
Mof_O 	O 	0.2968	0.0735	0.3555	-0.352
Mof_O 	O 	0.3353	0.9625	0.3668	-0.449
Mof_O 	O 	0.5128	0.0884	0.7291	-0.316
Mof_O 	O 	0.64344	0.1808	0.7107	-0.375
Mof_O 	O 	0.66849	0.1012	0.8286	-0.45
Mof_O 	O 	0.69297	0.2422	0.9198	-0.374
Mof_O 	O 	0.6319	0.3159	0.0015	-0.37
Mof_Mn	Mn	0.2478	0.64446	0.55781	0.927
Mof_Mn	Mn	0.29284	0.64341	0.89312	0.925
Mof_Mn	Mn	0.27325	0.50975	0.72796	0.867
Mof_C 	C 	0.826	0.5194	0.4111	0.419
Mof_C 	C 	0.884	0.538	0.4858	-0.25
Mof_C 	C 	0.9072	0.4869	0.5537	0.221
Mof_H 	H 	0.8858	0.4413	0.5551	-0.032
Mof_C 	C 	0.9163	0.6061	0.4847	0.218
Mof_H 	H 	0.9018	0.6404	0.4381	-0.032
Mof_C 	C 	0.9632	0.504	0.6204	-0.353
Mof_H 	H 	0.9798	0.4694	0.6656	0.171
Mof_C 	C 	0.9703	0.6221	0.5536	-0.352
Mof_H 	H 	0.991	0.6683	0.555	0.163
Mof_C 	C 	0.993	0.5705	0.6192	0.364
Mof_C 	C 	0.0487	0.6399	0.7479	0.258
Mof_C 	C 	0.9884	0.6587	0.7821	-0.239
Mof_H 	H 	0.9475	0.6351	0.7602	0.121
Mof_C 	C 	0.1111	0.6728	0.7818	-0.179
Mof_C 	C 	0.1733	0.6483	0.7369	0.427
Mof_C 	C 	0.9907	0.7139	0.8503	0.102
Mof_H 	H 	0.9506	0.7288	0.8726	-0.002
Mof_C 	C 	0.1118	0.7257	0.8521	0.02
Mof_C 	C 	0.1772	0.7633	0.8935	0.313
Mof_C 	C 	0.0515	0.7459	0.8843	-0.129
Mof_H 	H 	0.0523	0.7823	0.9303	0.089
Mof_C 	C 	0.6657	0.5274	0.1	0.404
Mof_C 	C 	0.6217	0.5445	0.0121	-0.256
Mof_C 	C 	0.5806	0.4917	0.9651	0.217
Mof_H 	H 	0.5818	0.4437	0.9883	-0.029
Mof_C 	C 	0.6191	0.6169	0.975	0.196
Mof_H 	H 	0.6477	0.6534	0.004	-0.026
Mof_C 	C 	0.5378	0.5083	0.8845	-0.337
Mof_H 	H 	0.5106	0.4716	0.8535	0.164
Mof_C 	C 	0.5735	0.6335	0.8944	-0.339
Mof_H 	H 	0.5697	0.6817	0.8718	0.153
Mof_C 	C 	0.5348	0.5788	0.8492	0.352
Mof_C 	C 	0.4916	0.6475	0.7099	0.272
Mof_C 	C 	0.5519	0.6679	0.6782	-0.263
Mof_H 	H 	0.5931	0.6458	0.7024	0.127
Mof_C 	C 	0.429	0.678	0.6732	-0.194
Mof_C 	C 	0.3667	0.6529	0.7148	0.444
Mof_C 	C 	0.5501	0.7216	0.61	0.122
Mof_H 	H 	0.5905	0.7363	0.5886	-0.01
Mof_C 	C 	0.4289	0.7314	0.6019	0.026
Mof_C 	C 	0.3628	0.7662	0.5573	0.328
Mof_C 	C 	0.4897	0.7539	0.5733	-0.145
Mof_H 	H 	0.4896	0.7912	0.5287	0.098
Mof_O 	O 	0.789	0.4649	0.4239	-0.448
Mof_O 	O 	0.8138	0.5581	0.3383	-0.362
Mof_O 	O 	0.0513	0.5834	0.6833	-0.31
Mof_O 	O 	0.1823	0.6776	0.6618	-0.371
Mof_O 	O 	0.20918	0.597	0.7797	-0.439
Mof_O 	O 	0.23355	0.74	0.8694	-0.368
Mof_O 	O 	0.1718	0.8144	0.9521	-0.36
Mof_O 	O 	0.7032	0.5735	0.1445	-0.351
Mof_O 	O 	0.6647	0.4625	0.1332	-0.448
Mof_O 	O 	0.4872	0.5884	0.7709	-0.316
Mof_O 	O 	0.35656	0.6808	0.7893	-0.375
Mof_O 	O 	0.33151	0.6012	0.6714	-0.45
Mof_O 	O 	0.30703	0.7422	0.5802	-0.374
Mof_O 	O 	0.3681	0.8159	0.4985	-0.369
_end
