# CIF file generated by openbabel 3.1.0, see https://openbabel.org
data_I
_chemical_name_common 'OKILEA_clean'
_cell_length_a 14.2324
_cell_length_b 15.4777
_cell_length_c 15.4777
_cell_angle_alpha 68.9567
_cell_angle_beta 72.1507
_cell_angle_gamma 107.849
_space_group_name_H-M_alt 'P 1'
_space_group_name_Hall 'P 1'
loop_
    _symmetry_equiv_pos_as_xyz
    x,y,z
loop_
    _atom_site_label
    _atom_site_type_symbol
    _atom_site_fract_x
    _atom_site_fract_y
    _atom_site_fract_z
    _atom_site_occupancy
    Mn1      Mn       0.51056    0.24303    0.27484    1.000
    Mn2      Mn       0.78540    0.27484    0.48213    1.000
    Mn3      Mn       0.26753    0.48213    0.24303    1.000
    Mn4      Mn       0.48944    0.75697    0.72516    1.000
    Mn5      Mn       0.21460    0.72516    0.51787    1.000
    Mn6      Mn       0.73247    0.51787    0.75697    1.000
    Mn7      Mn       0.00000    0.50000    0.00000    1.000
    Mn8      Mn       0.00000    0.00000    0.50000    1.000
    Mn9      Mn       0.50000    0.50000    0.50000    1.000
    H1       H        0.49470    0.45940    0.91860    1.000
    H2       H        0.31560    0.40880    0.93610    1.000
    H3       H        0.17770    0.23700    0.05230    1.000
    H4       H        0.21540    0.11890    0.15830    1.000
    H5       H        0.39450    0.16820    0.14010    1.000
    H6       H        0.41330    0.91860    0.62200    1.000
    H7       H        0.25170    0.93610    0.65510    1.000
    H8       H        0.23000    0.05230    0.71070    1.000
    H9       H        0.37370    0.15830    0.72280    1.000
    H10      H        0.53460    0.14010    0.69170    1.000
    H11      H        0.03530    0.62200    0.45940    1.000
    H12      H        0.90680    0.65510    0.40880    1.000
    H13      H        0.94070    0.71070    0.23700    1.000
    H14      H        0.09650    0.72280    0.11890    1.000
    H15      H        0.22630    0.69170    0.16820    1.000
    H16      H        0.50530    0.54060    0.08140    1.000
    H17      H        0.68440    0.59120    0.06390    1.000
    H18      H        0.82230    0.76300    0.94770    1.000
    H19      H        0.78460    0.88110    0.84170    1.000
    H20      H        0.60550    0.83180    0.85990    1.000
    H21      H        0.58670    0.08140    0.37800    1.000
    H22      H        0.74830    0.06390    0.34490    1.000
    H23      H        0.77000    0.94770    0.28930    1.000
    H24      H        0.62630    0.84170    0.27720    1.000
    H25      H        0.46540    0.85990    0.30830    1.000
    H26      H        0.96470    0.37800    0.54060    1.000
    H27      H        0.09320    0.34490    0.59120    1.000
    H28      H        0.05930    0.28930    0.76300    1.000
    H29      H        0.90350    0.27720    0.88110    1.000
    H30      H        0.77370    0.30830    0.83180    1.000
    C1       C        0.87138    0.49392    0.86669    1.000
    C2       C        0.75567    0.42289    0.95307    1.000
    C3       C        0.70835    0.35854    0.06086    1.000
    C4       C        0.75330    0.33071    0.13611    1.000
    C5       C        0.57607    0.34960    0.01883    1.000
    C6       C        0.46311    0.31893    0.02815    1.000
    C7       C        0.43899    0.39087    0.96653    1.000
    C8       C        0.33165    0.36033    0.97667    1.000
    C9       C        0.24872    0.25775    0.04719    1.000
    C10      C        0.27178    0.18709    0.10925    1.000
    C11      C        0.37912    0.21699    0.09907    1.000
    C12      C        0.73807    0.86669    0.63939    1.000
    C13      C        0.70874    0.95307    0.62404    1.000
    C14      C        0.76921    0.06086    0.58060    1.000
    C15      C        0.88941    0.13611    0.53318    1.000
    C16      C        0.59490    0.01883    0.63157    1.000
    C17      C        0.49126    0.02815    0.65292    1.000
    C18      C        0.40552    0.96653    0.64260    1.000
    C19      C        0.30832    0.97667    0.66300    1.000
    C20      C        0.29591    0.04719    0.69506    1.000
    C21      C        0.38103    0.10925    0.70366    1.000
    C22      C        0.47819    0.09907    0.68394    1.000
    C23      C        0.37746    0.63939    0.49392    1.000
    C24      C        0.33278    0.62404    0.42289    1.000
    C25      C        0.34981    0.58060    0.35854    1.000
    C26      C        0.42259    0.53318    0.33071    1.000
    C27      C        0.22647    0.63157    0.34960    1.000
    C28      C        0.14418    0.65292    0.31893    1.000
    C29      C        0.04812    0.64260    0.39087    1.000
    C30      C        0.97132    0.66300    0.36033    1.000
    C31      C        0.99097    0.69506    0.25775    1.000
    C32      C        0.08469    0.70366    0.18709    1.000
    C33      C        0.16213    0.68394    0.21699    1.000
    C34      C        0.12862    0.50608    0.13331    1.000
    C35      C        0.24433    0.57711    0.04693    1.000
    C36      C        0.29165    0.64146    0.93914    1.000
    C37      C        0.24670    0.66929    0.86389    1.000
    C38      C        0.42393    0.65040    0.98117    1.000
    C39      C        0.53689    0.68107    0.97185    1.000
    C40      C        0.56101    0.60913    0.03347    1.000
    C41      C        0.66835    0.63967    0.02333    1.000
    C42      C        0.75128    0.74225    0.95281    1.000
    C43      C        0.72822    0.81291    0.89075    1.000
    C44      C        0.62088    0.78301    0.90093    1.000
    C45      C        0.26193    0.13331    0.36061    1.000
    C46      C        0.29126    0.04693    0.37596    1.000
    C47      C        0.23079    0.93914    0.41940    1.000
    C48      C        0.11059    0.86389    0.46682    1.000
    C49      C        0.40510    0.98117    0.36843    1.000
    C50      C        0.50874    0.97185    0.34708    1.000
    C51      C        0.59448    0.03347    0.35740    1.000
    C52      C        0.69168    0.02333    0.33700    1.000
    C53      C        0.70409    0.95281    0.30494    1.000
    C54      C        0.61897    0.89075    0.29634    1.000
    C55      C        0.52181    0.90093    0.31606    1.000
    C56      C        0.62254    0.36061    0.50608    1.000
    C57      C        0.66722    0.37596    0.57711    1.000
    C58      C        0.65019    0.41940    0.64146    1.000
    C59      C        0.57741    0.46682    0.66929    1.000
    C60      C        0.77353    0.36843    0.65040    1.000
    C61      C        0.85582    0.34708    0.68107    1.000
    C62      C        0.95188    0.35740    0.60913    1.000
    C63      C        0.02868    0.33700    0.63967    1.000
    C64      C        0.00903    0.30494    0.74225    1.000
    C65      C        0.91531    0.29634    0.81291    1.000
    C66      C        0.83787    0.31606    0.78301    1.000
    N1       N        0.59440    0.31318    0.10172    1.000
    N2       N        0.67032    0.41631    0.92738    1.000
    N3       N        0.69612    0.10172    0.58510    1.000
    N4       N        0.59770    0.92738    0.65631    1.000
    N5       N        0.28122    0.58510    0.31318    1.000
    N6       N        0.25401    0.65631    0.41631    1.000
    N7       N        0.40560    0.68682    0.89828    1.000
    N8       N        0.32968    0.58369    0.07262    1.000
    N9       N        0.30388    0.89828    0.41490    1.000
    N10      N        0.40230    0.07262    0.34369    1.000
    N11      N        0.71878    0.41490    0.68682    1.000
    N12      N        0.74599    0.34369    0.58369    1.000
    O1       O        0.95529    0.50926    0.88023    1.000
    O2       O        0.88035    0.53852    0.77584    1.000
    O3       O        0.85460    0.35381    0.10392    1.000
    O4       O        0.68410    0.28123    0.23162    1.000
    O5       O        0.83552    0.88023    0.61051    1.000
    O6       O        0.65619    0.77584    0.68564    1.000
    O7       O        0.95852    0.10392    0.54227    1.000
    O8       O        0.91572    0.23162    0.48715    1.000
    O9       O        0.44603    0.61051    0.50926    1.000
    O10      O        0.34183    0.68564    0.53852    1.000
    O11      O        0.50079    0.54227    0.35381    1.000
    O12      O        0.40287    0.48715    0.28123    1.000
    O13      O        0.04471    0.49074    0.11977    1.000
    O14      O        0.11965    0.46148    0.22416    1.000
    O15      O        0.14540    0.64619    0.89608    1.000
    O16      O        0.31590    0.71877    0.76838    1.000
    O17      O        0.16448    0.11977    0.38949    1.000
    O18      O        0.34381    0.22416    0.31436    1.000
    O19      O        0.04148    0.89608    0.45773    1.000
    O20      O        0.08428    0.76838    0.51285    1.000
    O21      O        0.55397    0.38949    0.49074    1.000
    O22      O        0.65817    0.31436    0.46148    1.000
    O23      O        0.49921    0.45773    0.64619    1.000
    O24      O        0.59713    0.51285    0.71877    1.000
