# CIF file generated by openbabel 3.1.0, see https://openbabel.org
data_I
_chemical_name_common 'PEDMER_clean'
_cell_length_a 10.022
_cell_length_b 10.182
_cell_length_c 10.619
_cell_angle_alpha 72.983
_cell_angle_beta 62.182
_cell_angle_gamma 63.997
_space_group_name_H-M_alt 'P 1'
_space_group_name_Hall 'P 1'
loop_
    _symmetry_equiv_pos_as_xyz
    x,y,z
loop_
    _atom_site_label
    _atom_site_type_symbol
    _atom_site_fract_x
    _atom_site_fract_y
    _atom_site_fract_z
    _atom_site_occupancy
    Cu1      Cu       0.22877    0.49947    0.53742    1.000
    Cu2      Cu       0.42925    0.18211    0.80104    1.000
    Cu3      Cu       0.24864    0.14313    0.18630    1.000
    Cu4      Cu       0.77123    0.50053    0.46258    1.000
    Cu5      Cu       0.57075    0.81789    0.19896    1.000
    Cu6      Cu       0.75136    0.85687    0.81370    1.000
    P1       P        0.85454    0.54252    0.71595    1.000
    P2       P        0.59272    0.10921    0.00747    1.000
    P3       P        0.57944    0.48551    0.30451    1.000
    P4       P        0.14546    0.45748    0.28405    1.000
    P5       P        0.40728    0.89079    0.99253    1.000
    P6       P        0.42056    0.51449    0.69549    1.000
    H1       H        0.73100    0.31200    0.79300    1.000
    H2       H        0.54700    0.25100    0.21700    1.000
    H3       H        0.75900    0.54200    0.01800    1.000
    H4       H        0.26900    0.68800    0.20700    1.000
    H5       H        0.45300    0.74900    0.78300    1.000
    H6       H        0.24100    0.45800    0.98200    1.000
    C1       C        0.76250    0.44400    0.88230    1.000
    C2       C        0.72240    0.32810    0.88230    1.000
    C3       C        0.64420    0.25530    0.01140    1.000
    C4       C        0.60230    0.30000    0.14080    1.000
    C5       C        0.64350    0.41310    0.14180    1.000
    C6       C        0.72590    0.48140    0.01230    1.000
    C7       C        0.23750    0.55600    0.11770    1.000
    C8       C        0.27760    0.67190    0.11770    1.000
    C9       C        0.35580    0.74470    0.98860    1.000
    C10      C        0.39770    0.70000    0.85920    1.000
    C11      C        0.35650    0.58690    0.85820    1.000
    C12      C        0.27410    0.51860    0.98770    1.000
    O1       O        0.45900    0.41730    0.42410    1.000
    O2       O        0.83390    0.50180    0.60330    1.000
    O3       O        0.03160    0.48930    0.69380    1.000
    O4       O        0.73330    0.43970    0.32930    1.000
    O5       O        0.42730    0.17350    0.99470    1.000
    O6       O        0.72110    0.03470    0.87350    1.000
    O7       O        0.76880    0.70640    0.73060    1.000
    O8       O        0.49950    0.65280    0.28140    1.000
    O9       O        0.57750    0.01380    0.15030    1.000
    O10      O        0.54100    0.58270    0.57590    1.000
    O11      O        0.16610    0.49820    0.39670    1.000
    O12      O        0.96840    0.51070    0.30620    1.000
    O13      O        0.26670    0.56030    0.67070    1.000
    O14      O        0.57270    0.82650    0.00530    1.000
    O15      O        0.27890    0.96530    0.12650    1.000
    O16      O        0.23120    0.29360    0.26940    1.000
    O17      O        0.50050    0.34720    0.71860    1.000
    O18      O        0.42250    0.98620    0.84970    1.000
