# CIF file generated by openbabel 3.1.0, see https://openbabel.org
data_I
_chemical_name_common 'image0'
_cell_length_a 6.997
_cell_length_b 25.4831
_cell_length_c 28.2642
_cell_angle_alpha 90
_cell_angle_beta 92.712
_cell_angle_gamma 90
_space_group_name_H-M_alt 'P 1'
_space_group_name_Hall 'P 1'
loop_
    _symmetry_equiv_pos_as_xyz
    x,y,z
loop_
    _atom_site_label
    _atom_site_type_symbol
    _atom_site_fract_x
    _atom_site_fract_y
    _atom_site_fract_z
    _atom_site_occupancy
    Mn1      Mn       0.20060    0.93068    0.24834    1.000
    Mn2      Mn       0.65369    0.53332    0.73533    1.000
    O1       O        0.87810    0.58410    0.76825    1.000
    O2       O        0.46770    0.89828    0.22233    1.000
    O3       O        0.53920    0.47257    0.20630    1.000
    O4       O        0.12430    0.62150    0.80406    1.000
    O5       O        0.20830    0.86440    0.18867    1.000
    O6       O        0.83330    0.01499    0.80837    1.000
    C1       C        0.99070    0.75930    0.04160    1.000
    C2       C        0.06260    0.78620    0.95870    1.000
    O7       O        0.54270    0.97950    0.80140    1.000
    C3       C        0.35540    0.71260    0.95820    1.000
    O8       O        0.82840    0.50260    0.20308    1.000
    C4       C        0.28410    0.68680    0.04220    1.000
    C5       C        0.09630    0.75360    0.00050    1.000
    C6       C        0.38420    0.86820    0.19080    1.000
    C7       C        0.24600    0.71760    0.99900    1.000
    C8       C        0.71390    0.97960    0.81660    1.000
    C9       C        0.50800    0.67490    0.96100    1.000
    C10      C        0.94870    0.61210    0.80120    1.000
    C11      C        0.83120    0.63280    0.83960    1.000
    C12      C        0.02000    0.72720    0.08230    1.000
    H1       H        0.94020    0.72970    0.10760    1.000
    C13      C        0.32760    0.74370    0.91640    1.000
    H2       H        0.40360    0.73990    0.89050    1.000
    C14      C        0.44300    0.65080    0.03820    1.000
    C15      C        0.18250    0.68940    0.08320    1.000
    H3       H        0.21400    0.66880    0.10960    1.000
    C16      C        0.80450    0.82480    0.12430    1.000
    H4       H        0.93740    0.82570    0.12750    1.000
    C17      C        0.86160    0.86090    0.92040    1.000
    C18      C        0.62200    0.66350    0.91750    1.000
    C19      C        0.59130    0.54280    0.15360    1.000
    C20      C        0.91030    0.82220    0.96170    1.000
    C21      C        0.49470    0.61340    0.08080    1.000
    C22      C        0.95290    0.93110    0.86770    1.000
    H5       H        0.04820    0.95240    0.85630    1.000
    C23      C        0.16630    0.78310    0.91710    1.000
    H6       H        0.13650    0.80450    0.89110    1.000
    C24      C        0.77280    0.93730    0.85120    1.000
    C25      C        0.69740    0.83950    0.16340    1.000
    H7       H        0.75750    0.84760    0.19250    1.000
    C26      C        0.71890    0.80920    0.08180    1.000
    C27      C        0.55150    0.64670    0.00030    1.000
    H8       H        0.65660    0.62430    0.00120    1.000
    C28      C        0.50420    0.84130    0.15700    1.000
    C29      C        0.65380    0.50480    0.19040    1.000
    C30      C        0.79790    0.82620    0.99920    1.000
    H9       H        0.69350    0.84880    0.99790    1.000
    C31      C        0.53170    0.64760    0.87280    1.000
    H10      H        0.39890    0.64750    0.86930    1.000
    C32      C        0.63690    0.63290    0.83570    1.000
    H11      H        0.57500    0.62280    0.80730    1.000
    C33      C        0.92240    0.64820    0.88230    1.000
    H12      H        0.05540    0.64820    0.88510    1.000
    C34      C        0.63170    0.90470    0.86960    1.000
    H13      H        0.50560    0.90830    0.85820    1.000
    C35      C        0.41990    0.82190    0.11430    1.000
    H14      H        0.28740    0.81850    0.11190    1.000
    C36      C        0.83820    0.79670    0.03930    1.000
    C37      C        0.67820    0.61120    0.09870    1.000
    H15      H        0.76840    0.63420    0.08730    1.000
    C38      C        0.00100    0.89300    0.90170    1.000
    H16      H        0.12820    0.88900    0.91210    1.000
    C39      C        0.35690    0.57990    0.09970    1.000
    H17      H        0.23070    0.58170    0.08790    1.000
    C40      C        0.51920    0.80810    0.07700    1.000
    H18      H        0.45710    0.79790    0.04870    1.000
    C41      C        0.82010    0.66350    0.92030    1.000
    H19      H        0.88480    0.67390    0.94820    1.000
    C42      C        0.40650    0.54400    0.13600    1.000
    H20      H        0.31530    0.52160    0.14770    1.000
    C43      C        0.67330    0.86860    0.90310    1.000
    H21      H        0.57550    0.84850    0.91500    1.000
    C44      C        0.73320    0.57570    0.13340    1.000
    H22      H        0.86110    0.57300    0.14370    1.000
    Mn3      Mn       0.79940    0.43068    0.25166    1.000
    Mn4      Mn       0.34631    0.03332    0.76467    1.000
    O9       O        0.12190    0.08410    0.73175    1.000
    O10      O        0.53230    0.39828    0.27767    1.000
    O11      O        0.46080    0.97257    0.29370    1.000
    O12      O        0.87570    0.12150    0.69594    1.000
    O13      O        0.79170    0.36440    0.31133    1.000
    O14      O        0.16670    0.51499    0.69163    1.000
    C45      C        0.00930    0.25930    0.45840    1.000
    C46      C        0.93740    0.28620    0.54130    1.000
    O15      O        0.45730    0.47950    0.69860    1.000
    C47      C        0.64460    0.21260    0.54180    1.000
    O16      O        0.17160    0.00260    0.29692    1.000
    C48      C        0.71590    0.18680    0.45780    1.000
    C49      C        0.90370    0.25360    0.49950    1.000
    C50      C        0.61580    0.36820    0.30920    1.000
    C51      C        0.75400    0.21760    0.50100    1.000
    C52      C        0.28610    0.47960    0.68340    1.000
    C53      C        0.49200    0.17490    0.53900    1.000
    C54      C        0.05130    0.11210    0.69880    1.000
    C55      C        0.16880    0.13280    0.66040    1.000
    C56      C        0.98000    0.22720    0.41770    1.000
    H23      H        0.05980    0.22970    0.39240    1.000
    C57      C        0.67240    0.24370    0.58360    1.000
    H24      H        0.59640    0.23990    0.60950    1.000
    C58      C        0.55700    0.15080    0.46180    1.000
    C59      C        0.81750    0.18940    0.41680    1.000
    H25      H        0.78600    0.16880    0.39040    1.000
    C60      C        0.19550    0.32480    0.37570    1.000
    H26      H        0.06260    0.32570    0.37250    1.000
    C61      C        0.13840    0.36090    0.57960    1.000
    C62      C        0.37800    0.16350    0.58250    1.000
    C63      C        0.40870    0.04280    0.34640    1.000
    C64      C        0.08970    0.32220    0.53830    1.000
    C65      C        0.50530    0.11340    0.41920    1.000
    C66      C        0.04710    0.43110    0.63230    1.000
    H27      H        0.95180    0.45240    0.64370    1.000
    C67      C        0.83370    0.28310    0.58290    1.000
    H28      H        0.86350    0.30450    0.60890    1.000
    C68      C        0.22720    0.43730    0.64880    1.000
    C69      C        0.30260    0.33950    0.33660    1.000
    H29      H        0.24250    0.34760    0.30750    1.000
    C70      C        0.28110    0.30920    0.41820    1.000
    C71      C        0.44850    0.14670    0.49970    1.000
    H30      H        0.34340    0.12430    0.49880    1.000
    C72      C        0.49580    0.34130    0.34300    1.000
    C73      C        0.34620    0.00480    0.30960    1.000
    C74      C        0.20210    0.32620    0.50080    1.000
    H31      H        0.30650    0.34880    0.50210    1.000
    C75      C        0.46830    0.14760    0.62720    1.000
    H32      H        0.60110    0.14750    0.63070    1.000
    C76      C        0.36310    0.13290    0.66430    1.000
    H33      H        0.42500    0.12280    0.69270    1.000
    C77      C        0.07760    0.14820    0.61770    1.000
    H34      H        0.94460    0.14820    0.61490    1.000
    C78      C        0.36830    0.40470    0.63040    1.000
    H35      H        0.49440    0.40830    0.64180    1.000
    C79      C        0.58010    0.32190    0.38570    1.000
    H36      H        0.71260    0.31850    0.38810    1.000
    C80      C        0.16180    0.29670    0.46070    1.000
    C81      C        0.32180    0.11120    0.40130    1.000
    H37      H        0.23160    0.13420    0.41270    1.000
    C82      C        0.99900    0.39300    0.59830    1.000
    H38      H        0.87180    0.38900    0.58790    1.000
    C83      C        0.64310    0.07990    0.40030    1.000
    H39      H        0.76930    0.08170    0.41210    1.000
    C84      C        0.48080    0.30810    0.42300    1.000
    H40      H        0.54290    0.29790    0.45130    1.000
    C85      C        0.17990    0.16350    0.57970    1.000
    H41      H        0.11520    0.17390    0.55180    1.000
    C86      C        0.59350    0.04400    0.36400    1.000
    H42      H        0.68470    0.02160    0.35230    1.000
    C87      C        0.32670    0.36860    0.59690    1.000
    H43      H        0.42450    0.34850    0.58500    1.000
    C88      C        0.26680    0.07570    0.36660    1.000
    H44      H        0.13890    0.07300    0.35630    1.000
    Mn5      Mn       0.79940    0.06932    0.75166    1.000
    Mn6      Mn       0.34631    0.46668    0.26467    1.000
    O17      O        0.12190    0.41590    0.23175    1.000
    O18      O        0.53230    0.10172    0.77767    1.000
    O19      O        0.46080    0.52743    0.79370    1.000
    O20      O        0.87570    0.37850    0.19594    1.000
    O21      O        0.79170    0.13560    0.81133    1.000
    O22      O        0.16670    0.98501    0.19163    1.000
    C89      C        0.00930    0.24070    0.95840    1.000
    C90      C        0.93740    0.21380    0.04130    1.000
    O23      O        0.45730    0.02050    0.19860    1.000
    C91      C        0.64460    0.28740    0.04180    1.000
    O24      O        0.17160    0.49740    0.79692    1.000
    C92      C        0.71590    0.31320    0.95780    1.000
    C93      C        0.90370    0.24640    0.99950    1.000
    C94      C        0.61580    0.13180    0.80920    1.000
    C95      C        0.75400    0.28240    0.00100    1.000
    C96      C        0.28610    0.02040    0.18340    1.000
    C97      C        0.49200    0.32510    0.03900    1.000
    C98      C        0.05130    0.38790    0.19880    1.000
    C99      C        0.16880    0.36720    0.16040    1.000
    C100     C        0.98000    0.27280    0.91770    1.000
    H45      H        0.05980    0.27030    0.89240    1.000
    C101     C        0.67240    0.25630    0.08360    1.000
    H46      H        0.59640    0.26010    0.10950    1.000
    C102     C        0.55700    0.34920    0.96180    1.000
    C103     C        0.81750    0.31060    0.91680    1.000
    H47      H        0.78600    0.33120    0.89040    1.000
    C104     C        0.19550    0.17520    0.87570    1.000
    H48      H        0.06260    0.17430    0.87250    1.000
    C105     C        0.13840    0.13910    0.07960    1.000
    C106     C        0.37800    0.33650    0.08250    1.000
    C107     C        0.40870    0.45720    0.84640    1.000
    C108     C        0.08970    0.17780    0.03830    1.000
    C109     C        0.50530    0.38660    0.91920    1.000
    C110     C        0.04710    0.06890    0.13230    1.000
    H49      H        0.95180    0.04760    0.14370    1.000
    C111     C        0.83370    0.21690    0.08290    1.000
    H50      H        0.86350    0.19550    0.10890    1.000
    C112     C        0.22720    0.06270    0.14880    1.000
    C113     C        0.30260    0.16050    0.83660    1.000
    H51      H        0.24250    0.15240    0.80750    1.000
    C114     C        0.28110    0.19080    0.91820    1.000
    C115     C        0.44850    0.35330    0.99970    1.000
    H52      H        0.34340    0.37570    0.99880    1.000
    C116     C        0.49580    0.15870    0.84300    1.000
    C117     C        0.34620    0.49520    0.80960    1.000
    C118     C        0.20210    0.17380    0.00080    1.000
    H53      H        0.30650    0.15120    0.00210    1.000
    C119     C        0.46830    0.35240    0.12720    1.000
    H54      H        0.60110    0.35250    0.13070    1.000
    C120     C        0.36310    0.36710    0.16430    1.000
    H55      H        0.42500    0.37720    0.19270    1.000
    C121     C        0.07760    0.35180    0.11770    1.000
    H56      H        0.94460    0.35180    0.11490    1.000
    C122     C        0.36830    0.09530    0.13040    1.000
    H57      H        0.49440    0.09170    0.14180    1.000
    C123     C        0.58010    0.17810    0.88570    1.000
    H58      H        0.71260    0.18150    0.88810    1.000
    C124     C        0.16180    0.20330    0.96070    1.000
    C125     C        0.32180    0.38880    0.90130    1.000
    H59      H        0.23160    0.36580    0.91270    1.000
    C126     C        0.99900    0.10700    0.09830    1.000
    H60      H        0.87180    0.11100    0.08790    1.000
    C127     C        0.64310    0.42010    0.90030    1.000
    H61      H        0.76930    0.41830    0.91210    1.000
    C128     C        0.48080    0.19190    0.92300    1.000
    H62      H        0.54290    0.20210    0.95130    1.000
    C129     C        0.17990    0.33650    0.07970    1.000
    H63      H        0.11520    0.32610    0.05180    1.000
    C130     C        0.59350    0.45600    0.86400    1.000
    H64      H        0.68470    0.47840    0.85230    1.000
    C131     C        0.32670    0.13140    0.09690    1.000
    H65      H        0.42450    0.15150    0.08500    1.000
    C132     C        0.26680    0.42430    0.86660    1.000
    H66      H        0.13890    0.42700    0.85630    1.000
    Mn7      Mn       0.20060    0.56932    0.74834    1.000
    Mn8      Mn       0.65369    0.96668    0.23533    1.000
    O25      O        0.87810    0.91590    0.26825    1.000
    O26      O        0.46770    0.60172    0.72233    1.000
    O27      O        0.53920    0.02743    0.70630    1.000
    O28      O        0.12430    0.87850    0.30406    1.000
    O29      O        0.20830    0.63560    0.68867    1.000
    O30      O        0.83330    0.48501    0.30837    1.000
    C133     C        0.99070    0.74070    0.54160    1.000
    C134     C        0.06260    0.71380    0.45870    1.000
    O31      O        0.54270    0.52050    0.30140    1.000
    C135     C        0.35540    0.78740    0.45820    1.000
    O32      O        0.82840    0.99740    0.70308    1.000
    C136     C        0.28410    0.81320    0.54220    1.000
    C137     C        0.09630    0.74640    0.50050    1.000
    C138     C        0.38420    0.63180    0.69080    1.000
    C139     C        0.24600    0.78240    0.49900    1.000
    C140     C        0.71390    0.52040    0.31660    1.000
    C141     C        0.50800    0.82510    0.46100    1.000
    C142     C        0.94870    0.88790    0.30120    1.000
    C143     C        0.83120    0.86720    0.33960    1.000
    C144     C        0.02000    0.77280    0.58230    1.000
    H67      H        0.94020    0.77030    0.60760    1.000
    C145     C        0.32760    0.75630    0.41640    1.000
    H68      H        0.40360    0.76010    0.39050    1.000
    C146     C        0.44300    0.84920    0.53820    1.000
    C147     C        0.18250    0.81060    0.58320    1.000
    H69      H        0.21400    0.83120    0.60960    1.000
    C148     C        0.80450    0.67520    0.62430    1.000
    H70      H        0.93740    0.67430    0.62750    1.000
    C149     C        0.86160    0.63910    0.42040    1.000
    C150     C        0.62200    0.83650    0.41750    1.000
    C151     C        0.59130    0.95720    0.65360    1.000
    C152     C        0.91030    0.67780    0.46170    1.000
    C153     C        0.49470    0.88660    0.58080    1.000
    C154     C        0.95290    0.56890    0.36770    1.000
    H71      H        0.04820    0.54760    0.35630    1.000
    C155     C        0.16630    0.71690    0.41710    1.000
    H72      H        0.13650    0.69550    0.39110    1.000
    C156     C        0.77280    0.56270    0.35120    1.000
    C157     C        0.69740    0.66050    0.66340    1.000
    H73      H        0.75750    0.65240    0.69250    1.000
    C158     C        0.71890    0.69080    0.58180    1.000
    C159     C        0.55150    0.85330    0.50030    1.000
    H74      H        0.65660    0.87570    0.50120    1.000
    C160     C        0.50420    0.65870    0.65700    1.000
    C161     C        0.65380    0.99520    0.69040    1.000
    C162     C        0.79790    0.67380    0.49920    1.000
    H75      H        0.69350    0.65120    0.49790    1.000
    C163     C        0.53170    0.85240    0.37280    1.000
    H76      H        0.39890    0.85250    0.36930    1.000
    C164     C        0.63690    0.86710    0.33570    1.000
    H77      H        0.57500    0.87720    0.30730    1.000
    C165     C        0.92240    0.85180    0.38230    1.000
    H78      H        0.05540    0.85180    0.38510    1.000
    C166     C        0.63170    0.59530    0.36960    1.000
    H79      H        0.50560    0.59170    0.35820    1.000
    C167     C        0.41990    0.67810    0.61430    1.000
    H80      H        0.28740    0.68150    0.61190    1.000
    C168     C        0.83820    0.70330    0.53930    1.000
    C169     C        0.67820    0.88880    0.59870    1.000
    H81      H        0.76840    0.86580    0.58730    1.000
    C170     C        0.00100    0.60700    0.40170    1.000
    H82      H        0.12820    0.61100    0.41210    1.000
    C171     C        0.35690    0.92010    0.59970    1.000
    H83      H        0.23070    0.91830    0.58790    1.000
    C172     C        0.51920    0.69190    0.57700    1.000
    H84      H        0.45710    0.70210    0.54870    1.000
    C173     C        0.82010    0.83650    0.42030    1.000
    H85      H        0.88480    0.82610    0.44820    1.000
    C174     C        0.40650    0.95600    0.63600    1.000
    H86      H        0.31530    0.97840    0.64770    1.000
    C175     C        0.67330    0.63140    0.40310    1.000
    H87      H        0.57550    0.65150    0.41500    1.000
    C176     C        0.73320    0.92430    0.63340    1.000
    H88      H        0.86110    0.92700    0.64370    1.000
