# CIF file generated by openbabel 3.1.0, see https://openbabel.org
data_I
_chemical_name_common 'image0'
_cell_length_a 16.0985
_cell_length_b 16.0985
_cell_length_c 17.0287
_cell_angle_alpha 90
_cell_angle_beta 90
_cell_angle_gamma 90
_space_group_name_H-M_alt 'P 1'
_space_group_name_Hall 'P 1'
loop_
    _symmetry_equiv_pos_as_xyz
    x,y,z
loop_
    _atom_site_label
    _atom_site_type_symbol
    _atom_site_fract_x
    _atom_site_fract_y
    _atom_site_fract_z
    _atom_site_occupancy
    Ni1      Ni       0.25225    0.27109    0.27717    1.000
    N1       N        0.27190    0.28090    0.15660    1.000
    C1       C        0.28660    0.28130    0.09230    1.000
    N2       N        0.30800    0.38660    0.29090    1.000
    C2       C        0.33350    0.45260    0.28260    1.000
    N3       N        0.13550    0.32750    0.26230    1.000
    C3       C        0.06920    0.34210    0.24530    1.000
    N4       N        0.86890    0.28800    0.21340    1.000
    C4       C        0.93010    0.32250    0.21950    1.000
    N5       N        0.30430    0.65490    0.23890    1.000
    C5       C        0.33090    0.59190    0.25520    1.000
    N6       N        0.24260    0.26470    0.89700    1.000
    C6       C        0.27310    0.27430    0.95750    1.000
    N7       N        0.31040    0.30440    0.02030    1.000
    N8       N        0.32480    0.26250    0.02050    1.000
    N9       N        0.37090    0.52280    0.27470    1.000
    N10      N        0.99710    0.36930    0.22120    1.000
    Ni2      Ni       0.74775    0.72891    0.27717    1.000
    N11      N        0.72810    0.71910    0.15660    1.000
    C7       C        0.71340    0.71870    0.09230    1.000
    N12      N        0.69200    0.61340    0.29090    1.000
    C8       C        0.66650    0.54740    0.28260    1.000
    N13      N        0.86450    0.67250    0.26230    1.000
    C9       C        0.93080    0.65790    0.24530    1.000
    N14      N        0.13110    0.71200    0.21340    1.000
    C10      C        0.06990    0.67750    0.21950    1.000
    N15      N        0.69570    0.34510    0.23890    1.000
    C11      C        0.66910    0.40810    0.25520    1.000
    N16      N        0.75740    0.73530    0.89700    1.000
    C12      C        0.72690    0.72570    0.95750    1.000
    N17      N        0.68960    0.69560    0.02030    1.000
    N18      N        0.67520    0.73750    0.02050    1.000
    N19      N        0.62910    0.47720    0.27470    1.000
    N20      N        0.00290    0.63070    0.22120    1.000
    Ni3      Ni       0.27109    0.74775    0.72283    1.000
    N21      N        0.28090    0.72810    0.84340    1.000
    C13      C        0.28130    0.71340    0.90770    1.000
    N22      N        0.38660    0.69200    0.70910    1.000
    C14      C        0.45260    0.66650    0.71740    1.000
    N23      N        0.32750    0.86450    0.73770    1.000
    C15      C        0.34210    0.93080    0.75470    1.000
    N24      N        0.28800    0.13110    0.78660    1.000
    C16      C        0.32250    0.06990    0.78050    1.000
    N25      N        0.65490    0.69570    0.76110    1.000
    C17      C        0.59190    0.66910    0.74480    1.000
    N26      N        0.26470    0.75740    0.10300    1.000
    C18      C        0.27430    0.72690    0.04250    1.000
    N27      N        0.30440    0.68960    0.97970    1.000
    N28      N        0.26250    0.67520    0.97950    1.000
    N29      N        0.52280    0.62910    0.72530    1.000
    N30      N        0.36930    0.00290    0.77880    1.000
    Ni4      Ni       0.72891    0.25225    0.72283    1.000
    N31      N        0.71910    0.27190    0.84340    1.000
    C19      C        0.71870    0.28660    0.90770    1.000
    N32      N        0.61340    0.30800    0.70910    1.000
    C20      C        0.54740    0.33350    0.71740    1.000
    N33      N        0.67250    0.13550    0.73770    1.000
    C21      C        0.65790    0.06920    0.75470    1.000
    N34      N        0.71200    0.86890    0.78660    1.000
    C22      C        0.67750    0.93010    0.78050    1.000
    N35      N        0.34510    0.30430    0.76110    1.000
    C23      C        0.40810    0.33090    0.74480    1.000
    N36      N        0.73530    0.24260    0.10300    1.000
    C24      C        0.72570    0.27310    0.04250    1.000
    N37      N        0.69560    0.31040    0.97970    1.000
    N38      N        0.73750    0.32480    0.97950    1.000
    N39      N        0.47720    0.37090    0.72530    1.000
    N40      N        0.63070    0.99710    0.77880    1.000
    Ni5      Ni       0.24775    0.77109    0.22283    1.000
    N41      N        0.22810    0.78090    0.34340    1.000
    C25      C        0.21340    0.78130    0.40770    1.000
    N42      N        0.19200    0.88660    0.20910    1.000
    C26      C        0.16650    0.95260    0.21740    1.000
    N43      N        0.36450    0.82750    0.23770    1.000
    C27      C        0.43080    0.84210    0.25470    1.000
    N44      N        0.63110    0.78800    0.28660    1.000
    C28      C        0.56990    0.82250    0.28050    1.000
    N45      N        0.19570    0.15490    0.26110    1.000
    C29      C        0.16910    0.09190    0.24480    1.000
    N46      N        0.25740    0.76470    0.60300    1.000
    C30      C        0.22690    0.77430    0.54250    1.000
    N47      N        0.18960    0.80440    0.47970    1.000
    N48      N        0.17520    0.76250    0.47950    1.000
    N49      N        0.12910    0.02280    0.22530    1.000
    N50      N        0.50290    0.86930    0.27880    1.000
    Ni6      Ni       0.75225    0.22891    0.22283    1.000
    N51      N        0.77190    0.21910    0.34340    1.000
    C31      C        0.78660    0.21870    0.40770    1.000
    N52      N        0.80800    0.11340    0.20910    1.000
    C32      C        0.83350    0.04740    0.21740    1.000
    N53      N        0.63550    0.17250    0.23770    1.000
    C33      C        0.56920    0.15790    0.25470    1.000
    N54      N        0.36890    0.21200    0.28660    1.000
    C34      C        0.43010    0.17750    0.28050    1.000
    N55      N        0.80430    0.84510    0.26110    1.000
    C35      C        0.83090    0.90810    0.24480    1.000
    N56      N        0.74260    0.23530    0.60300    1.000
    C36      C        0.77310    0.22570    0.54250    1.000
    N57      N        0.81040    0.19560    0.47970    1.000
    N58      N        0.82480    0.23750    0.47950    1.000
    N59      N        0.87090    0.97720    0.22530    1.000
    N60      N        0.49710    0.13070    0.27880    1.000
    Ni7      Ni       0.22891    0.24775    0.77717    1.000
    N61      N        0.21910    0.22810    0.65660    1.000
    C37      C        0.21870    0.21340    0.59230    1.000
    N62      N        0.11340    0.19200    0.79090    1.000
    C38      C        0.04740    0.16650    0.78260    1.000
    N63      N        0.17250    0.36450    0.76230    1.000
    C39      C        0.15790    0.43080    0.74530    1.000
    N64      N        0.21200    0.63110    0.71340    1.000
    C40      C        0.17750    0.56990    0.71950    1.000
    N65      N        0.84510    0.19570    0.73890    1.000
    C41      C        0.90810    0.16910    0.75520    1.000
    N66      N        0.23530    0.25740    0.39700    1.000
    C42      C        0.22570    0.22690    0.45750    1.000
    N67      N        0.19560    0.18960    0.52030    1.000
    N68      N        0.23750    0.17520    0.52050    1.000
    N69      N        0.97720    0.12910    0.77470    1.000
    N70      N        0.13070    0.50290    0.72120    1.000
    Ni8      Ni       0.77109    0.75225    0.77717    1.000
    N71      N        0.78090    0.77190    0.65660    1.000
    C43      C        0.78130    0.78660    0.59230    1.000
    N72      N        0.88660    0.80800    0.79090    1.000
    C44      C        0.95260    0.83350    0.78260    1.000
    N73      N        0.82750    0.63550    0.76230    1.000
    C45      C        0.84210    0.56920    0.74530    1.000
    N74      N        0.78800    0.36890    0.71340    1.000
    C46      C        0.82250    0.43010    0.71950    1.000
    N75      N        0.15490    0.80430    0.73890    1.000
    C47      C        0.09190    0.83090    0.75520    1.000
    N76      N        0.76470    0.74260    0.39700    1.000
    C48      C        0.77430    0.77310    0.45750    1.000
    N77      N        0.80440    0.81040    0.52030    1.000
    N78      N        0.76250    0.82480    0.52050    1.000
    N79      N        0.02280    0.87090    0.77470    1.000
    N80      N        0.86930    0.49710    0.72120    1.000
    C49      C        0.07880    0.49590    0.45080    1.000
    H1       H        0.06510    0.50530    0.39490    1.000
    H2       H        0.10220    0.43930    0.45550    1.000
    C50      C        0.14960    0.56270    0.47710    1.000
    H3       H        0.12230    0.61560    0.49160    1.000
    H4       H        0.17870    0.54140    0.52420    1.000
    C51      C        0.21270    0.57930    0.41350    1.000
    H5       H        0.25960    0.61030    0.43560    1.000
    H6       H        0.18690    0.61200    0.37150    1.000
    H7       H        0.23260    0.52640    0.39210    1.000
    C52      C        0.96880    0.57750    0.53110    1.000
    H8       H        0.91790    0.56590    0.56180    1.000
    H9       H        0.95360    0.61570    0.48790    1.000
    C53      C        0.03080    0.61910    0.58290    1.000
    H10      H        0.08360    0.62550    0.55370    1.000
    H11      H        0.04180    0.58310    0.62890    1.000
    C54      C        0.00270    0.70330    0.61130    1.000
    H12      H        0.04900    0.73150    0.63750    1.000
    H13      H        0.95670    0.69660    0.64850    1.000
    H14      H        0.98410    0.73670    0.56650    1.000
    C55      C        0.93070    0.46430    0.44830    1.000
    H15      H        0.91200    0.41600    0.47960    1.000
    H16      H        0.88600    0.50610    0.45410    1.000
    C56      C        0.92140    0.43950    0.37830    1.000
    H17      H        0.93830    0.38040    0.37490    1.000
    H18      H        0.95840    0.47190    0.34350    1.000
    C57      C        0.83290    0.44800    0.34960    1.000
    H19      H        0.82800    0.42350    0.29710    1.000
    H20      H        0.81780    0.50690    0.34730    1.000
    H21      H        0.79540    0.41900    0.38580    1.000
    C58      C        0.00140    0.43080    0.56590    1.000
    H22      H        0.04110    0.44900    0.60670    1.000
    H23      H        0.94560    0.42920    0.59040    1.000
    C59      C        0.02440    0.34220    0.54170    1.000
    H24      H        0.99070    0.32570    0.49560    1.000
    H25      H        0.08360    0.34060    0.52600    1.000
    C60      C        0.01050    0.28150    0.60650    1.000
    H26      H        0.02800    0.22610    0.58940    1.000
    H27      H        0.95130    0.28040    0.62010    1.000
    H28      H        0.04290    0.29810    0.65260    1.000
    C61      C        0.92120    0.50410    0.45080    1.000
    H29      H        0.93490    0.49470    0.39490    1.000
    H30      H        0.89780    0.56070    0.45550    1.000
    C62      C        0.85040    0.43730    0.47710    1.000
    H31      H        0.87770    0.38440    0.49160    1.000
    H32      H        0.82130    0.45860    0.52420    1.000
    C63      C        0.78730    0.42070    0.41350    1.000
    H33      H        0.74040    0.38970    0.43560    1.000
    H34      H        0.81310    0.38800    0.37150    1.000
    H35      H        0.76740    0.47360    0.39210    1.000
    C64      C        0.03120    0.42250    0.53110    1.000
    H36      H        0.08210    0.43410    0.56180    1.000
    H37      H        0.04640    0.38430    0.48790    1.000
    C65      C        0.96920    0.38090    0.58290    1.000
    H38      H        0.91640    0.37450    0.55370    1.000
    H39      H        0.95820    0.41690    0.62890    1.000
    C66      C        0.99730    0.29670    0.61130    1.000
    H40      H        0.95100    0.26850    0.63750    1.000
    H41      H        0.04330    0.30340    0.64850    1.000
    H42      H        0.01590    0.26330    0.56650    1.000
    C67      C        0.06930    0.53570    0.44830    1.000
    H43      H        0.08800    0.58400    0.47960    1.000
    H44      H        0.11400    0.49390    0.45410    1.000
    C68      C        0.07860    0.56050    0.37830    1.000
    H45      H        0.06170    0.61960    0.37490    1.000
    H46      H        0.04160    0.52810    0.34350    1.000
    C69      C        0.16710    0.55200    0.34960    1.000
    H47      H        0.17200    0.57650    0.29710    1.000
    H48      H        0.18220    0.49310    0.34730    1.000
    H49      H        0.20460    0.58100    0.38580    1.000
    C70      C        0.99860    0.56920    0.56590    1.000
    H50      H        0.95890    0.55100    0.60670    1.000
    H51      H        0.05440    0.57080    0.59040    1.000
    C71      C        0.97560    0.65780    0.54170    1.000
    H52      H        0.00930    0.67430    0.49560    1.000
    H53      H        0.91640    0.65940    0.52600    1.000
    C72      C        0.98950    0.71850    0.60650    1.000
    H54      H        0.97200    0.77390    0.58940    1.000
    H55      H        0.04870    0.71960    0.62010    1.000
    H56      H        0.95710    0.70190    0.65260    1.000
    N81      N        0.00000    0.50000    0.49790    1.000
    C73      C        0.49590    0.92120    0.54920    1.000
    H57      H        0.50530    0.93490    0.60510    1.000
    H58      H        0.43930    0.89780    0.54450    1.000
    C74      C        0.56270    0.85040    0.52290    1.000
    H59      H        0.61560    0.87770    0.50840    1.000
    H60      H        0.54140    0.82130    0.47580    1.000
    C75      C        0.57930    0.78730    0.58650    1.000
    H61      H        0.61030    0.74040    0.56440    1.000
    H62      H        0.61200    0.81310    0.62850    1.000
    H63      H        0.52640    0.76740    0.60790    1.000
    C76      C        0.57750    0.03120    0.46890    1.000
    H64      H        0.56590    0.08210    0.43820    1.000
    H65      H        0.61570    0.04640    0.51210    1.000
    C77      C        0.61910    0.96920    0.41710    1.000
    H66      H        0.62550    0.91640    0.44630    1.000
    H67      H        0.58310    0.95820    0.37110    1.000
    C78      C        0.70330    0.99730    0.38870    1.000
    H68      H        0.73150    0.95100    0.36250    1.000
    H69      H        0.69660    0.04330    0.35150    1.000
    H70      H        0.73670    0.01590    0.43350    1.000
    C79      C        0.46430    0.06930    0.55170    1.000
    H71      H        0.41600    0.08800    0.52040    1.000
    H72      H        0.50610    0.11400    0.54590    1.000
    C80      C        0.43950    0.07860    0.62170    1.000
    H73      H        0.38040    0.06170    0.62510    1.000
    H74      H        0.47190    0.04160    0.65650    1.000
    C81      C        0.44800    0.16710    0.65040    1.000
    H75      H        0.42350    0.17200    0.70290    1.000
    H76      H        0.50690    0.18220    0.65270    1.000
    H77      H        0.41900    0.20460    0.61420    1.000
    C82      C        0.43080    0.99860    0.43410    1.000
    H78      H        0.44900    0.95890    0.39330    1.000
    H79      H        0.42920    0.05440    0.40960    1.000
    C83      C        0.34220    0.97560    0.45830    1.000
    H80      H        0.32570    0.00930    0.50440    1.000
    H81      H        0.34060    0.91640    0.47400    1.000
    C84      C        0.28150    0.98950    0.39350    1.000
    H82      H        0.22610    0.97200    0.41060    1.000
    H83      H        0.28040    0.04870    0.37990    1.000
    H84      H        0.29810    0.95710    0.34740    1.000
    C85      C        0.50410    0.07880    0.54920    1.000
    H85      H        0.49470    0.06510    0.60510    1.000
    H86      H        0.56070    0.10220    0.54450    1.000
    C86      C        0.43730    0.14960    0.52290    1.000
    H87      H        0.38440    0.12230    0.50840    1.000
    H88      H        0.45860    0.17870    0.47580    1.000
    C87      C        0.42070    0.21270    0.58650    1.000
    H89      H        0.38970    0.25960    0.56440    1.000
    H90      H        0.38800    0.18690    0.62850    1.000
    H91      H        0.47360    0.23260    0.60790    1.000
    C88      C        0.42250    0.96880    0.46890    1.000
    H92      H        0.43410    0.91790    0.43820    1.000
    H93      H        0.38430    0.95360    0.51210    1.000
    C89      C        0.38090    0.03080    0.41710    1.000
    H94      H        0.37450    0.08360    0.44630    1.000
    H95      H        0.41690    0.04180    0.37110    1.000
    C90      C        0.29670    0.00270    0.38870    1.000
    H96      H        0.26850    0.04900    0.36250    1.000
    H97      H        0.30340    0.95670    0.35150    1.000
    H98      H        0.26330    0.98410    0.43350    1.000
    C91      C        0.53570    0.93070    0.55170    1.000
    H99      H        0.58400    0.91200    0.52040    1.000
    H100     H        0.49390    0.88600    0.54590    1.000
    C92      C        0.56050    0.92140    0.62170    1.000
    H101     H        0.61960    0.93830    0.62510    1.000
    H102     H        0.52810    0.95840    0.65650    1.000
    C93      C        0.55200    0.83290    0.65040    1.000
    H103     H        0.57650    0.82800    0.70290    1.000
    H104     H        0.49310    0.81780    0.65270    1.000
    H105     H        0.58100    0.79540    0.61420    1.000
    C94      C        0.56920    0.00140    0.43410    1.000
    H106     H        0.55100    0.04110    0.39330    1.000
    H107     H        0.57080    0.94560    0.40960    1.000
    C95      C        0.65780    0.02440    0.45830    1.000
    H108     H        0.67430    0.99070    0.50440    1.000
    H109     H        0.65940    0.08360    0.47400    1.000
    C96      C        0.71850    0.01050    0.39350    1.000
    H110     H        0.77390    0.02800    0.41060    1.000
    H111     H        0.71960    0.95130    0.37990    1.000
    H112     H        0.70190    0.04290    0.34740    1.000
    N82      N        0.50000    0.00000    0.50210    1.000
    C97      C        0.42120    0.99590    0.04920    1.000
    H113     H        0.43490    0.00530    0.10510    1.000
    H114     H        0.39780    0.93930    0.04450    1.000
    C98      C        0.35040    0.06270    0.02290    1.000
    H115     H        0.37770    0.11560    0.00840    1.000
    H116     H        0.32130    0.04140    0.97580    1.000
    C99      C        0.28730    0.07930    0.08650    1.000
    H117     H        0.24040    0.11030    0.06440    1.000
    H118     H        0.31310    0.11200    0.12850    1.000
    H119     H        0.26740    0.02640    0.10790    1.000
    C100     C        0.53120    0.07750    0.96890    1.000
    H120     H        0.58210    0.06590    0.93820    1.000
    H121     H        0.54640    0.11570    0.01210    1.000
    C101     C        0.46920    0.11910    0.91710    1.000
    H122     H        0.41640    0.12550    0.94630    1.000
    H123     H        0.45820    0.08310    0.87110    1.000
    C102     C        0.49730    0.20330    0.88870    1.000
    H124     H        0.45100    0.23150    0.86250    1.000
    H125     H        0.54330    0.19660    0.85150    1.000
    H126     H        0.51590    0.23670    0.93350    1.000
    C103     C        0.56930    0.96430    0.05170    1.000
    H127     H        0.58800    0.91600    0.02040    1.000
    H128     H        0.61400    0.00610    0.04590    1.000
    C104     C        0.57860    0.93950    0.12170    1.000
    H129     H        0.56170    0.88040    0.12510    1.000
    H130     H        0.54160    0.97190    0.15650    1.000
    C105     C        0.66710    0.94800    0.15040    1.000
    H131     H        0.67200    0.92350    0.20290    1.000
    H132     H        0.68220    0.00690    0.15270    1.000
    H133     H        0.70460    0.91900    0.11420    1.000
    C106     C        0.49860    0.93080    0.93410    1.000
    H134     H        0.45890    0.94900    0.89330    1.000
    H135     H        0.55440    0.92920    0.90960    1.000
    C107     C        0.47560    0.84220    0.95830    1.000
    H136     H        0.50930    0.82570    0.00440    1.000
    H137     H        0.41640    0.84060    0.97400    1.000
    C108     C        0.48950    0.78150    0.89350    1.000
    H138     H        0.47200    0.72610    0.91060    1.000
    H139     H        0.54870    0.78040    0.87990    1.000
    H140     H        0.45710    0.79810    0.84740    1.000
    C109     C        0.57880    0.00410    0.04920    1.000
    H141     H        0.56510    0.99470    0.10510    1.000
    H142     H        0.60220    0.06070    0.04450    1.000
    C110     C        0.64960    0.93730    0.02290    1.000
    H143     H        0.62230    0.88440    0.00840    1.000
    H144     H        0.67870    0.95860    0.97580    1.000
    C111     C        0.71270    0.92070    0.08650    1.000
    H145     H        0.75960    0.88970    0.06440    1.000
    H146     H        0.68690    0.88800    0.12850    1.000
    H147     H        0.73260    0.97360    0.10790    1.000
    C112     C        0.46880    0.92250    0.96890    1.000
    H148     H        0.41790    0.93410    0.93820    1.000
    H149     H        0.45360    0.88430    0.01210    1.000
    C113     C        0.53080    0.88090    0.91710    1.000
    H150     H        0.58360    0.87450    0.94630    1.000
    H151     H        0.54180    0.91690    0.87110    1.000
    C114     C        0.50270    0.79670    0.88870    1.000
    H152     H        0.54900    0.76850    0.86250    1.000
    H153     H        0.45670    0.80340    0.85150    1.000
    H154     H        0.48410    0.76330    0.93350    1.000
    C115     C        0.43070    0.03570    0.05170    1.000
    H155     H        0.41200    0.08400    0.02040    1.000
    H156     H        0.38600    0.99390    0.04590    1.000
    C116     C        0.42140    0.06050    0.12170    1.000
    H157     H        0.43830    0.11960    0.12510    1.000
    H158     H        0.45840    0.02810    0.15650    1.000
    C117     C        0.33290    0.05200    0.15040    1.000
    H159     H        0.32800    0.07650    0.20290    1.000
    H160     H        0.31780    0.99310    0.15270    1.000
    H161     H        0.29540    0.08100    0.11420    1.000
    C118     C        0.50140    0.06920    0.93410    1.000
    H162     H        0.54110    0.05100    0.89330    1.000
    H163     H        0.44560    0.07080    0.90960    1.000
    C119     C        0.52440    0.15780    0.95830    1.000
    H164     H        0.49070    0.17430    0.00440    1.000
    H165     H        0.58360    0.15940    0.97400    1.000
    C120     C        0.51050    0.21850    0.89350    1.000
    H166     H        0.52800    0.27390    0.91060    1.000
    H167     H        0.45130    0.21960    0.87990    1.000
    H168     H        0.54290    0.20190    0.84740    1.000
    N83      N        0.50000    0.00000    0.00210    1.000
    C121     C        0.00410    0.42120    0.95080    1.000
    H169     H        0.99470    0.43490    0.89490    1.000
    H170     H        0.06070    0.39780    0.95550    1.000
    C122     C        0.93730    0.35040    0.97710    1.000
    H171     H        0.88440    0.37770    0.99160    1.000
    H172     H        0.95860    0.32130    0.02420    1.000
    C123     C        0.92070    0.28730    0.91350    1.000
    H173     H        0.88970    0.24040    0.93560    1.000
    H174     H        0.88800    0.31310    0.87150    1.000
    H175     H        0.97360    0.26740    0.89210    1.000
    C124     C        0.92250    0.53120    0.03110    1.000
    H176     H        0.93410    0.58210    0.06180    1.000
    H177     H        0.88430    0.54640    0.98790    1.000
    C125     C        0.88090    0.46920    0.08290    1.000
    H178     H        0.87450    0.41640    0.05370    1.000
    H179     H        0.91690    0.45820    0.12890    1.000
    C126     C        0.79670    0.49730    0.11130    1.000
    H180     H        0.76850    0.45100    0.13750    1.000
    H181     H        0.80340    0.54330    0.14850    1.000
    H182     H        0.76330    0.51590    0.06650    1.000
    C127     C        0.03570    0.56930    0.94830    1.000
    H183     H        0.08400    0.58800    0.97960    1.000
    H184     H        0.99390    0.61400    0.95410    1.000
    C128     C        0.06050    0.57860    0.87830    1.000
    H185     H        0.11960    0.56170    0.87490    1.000
    H186     H        0.02810    0.54160    0.84350    1.000
    C129     C        0.05200    0.66710    0.84960    1.000
    H187     H        0.07650    0.67200    0.79710    1.000
    H188     H        0.99310    0.68220    0.84730    1.000
    H189     H        0.08100    0.70460    0.88580    1.000
    C130     C        0.06920    0.49860    0.06590    1.000
    H190     H        0.05100    0.45890    0.10670    1.000
    H191     H        0.07080    0.55440    0.09040    1.000
    C131     C        0.15780    0.47560    0.04170    1.000
    H192     H        0.17430    0.50930    0.99560    1.000
    H193     H        0.15940    0.41640    0.02600    1.000
    C132     C        0.21850    0.48950    0.10650    1.000
    H194     H        0.27390    0.47200    0.08940    1.000
    H195     H        0.21960    0.54870    0.12010    1.000
    H196     H        0.20190    0.45710    0.15260    1.000
    C133     C        0.99590    0.57880    0.95080    1.000
    H197     H        0.00530    0.56510    0.89490    1.000
    H198     H        0.93930    0.60220    0.95550    1.000
    C134     C        0.06270    0.64960    0.97710    1.000
    H199     H        0.11560    0.62230    0.99160    1.000
    H200     H        0.04140    0.67870    0.02420    1.000
    C135     C        0.07930    0.71270    0.91350    1.000
    H201     H        0.11030    0.75960    0.93560    1.000
    H202     H        0.11200    0.68690    0.87150    1.000
    H203     H        0.02640    0.73260    0.89210    1.000
    C136     C        0.07750    0.46880    0.03110    1.000
    H204     H        0.06590    0.41790    0.06180    1.000
    H205     H        0.11570    0.45360    0.98790    1.000
    C137     C        0.11910    0.53080    0.08290    1.000
    H206     H        0.12550    0.58360    0.05370    1.000
    H207     H        0.08310    0.54180    0.12890    1.000
    C138     C        0.20330    0.50270    0.11130    1.000
    H208     H        0.23150    0.54900    0.13750    1.000
    H209     H        0.19660    0.45670    0.14850    1.000
    H210     H        0.23670    0.48410    0.06650    1.000
    C139     C        0.96430    0.43070    0.94830    1.000
    H211     H        0.91600    0.41200    0.97960    1.000
    H212     H        0.00610    0.38600    0.95410    1.000
    C140     C        0.93950    0.42140    0.87830    1.000
    H213     H        0.88040    0.43830    0.87490    1.000
    H214     H        0.97190    0.45840    0.84350    1.000
    C141     C        0.94800    0.33290    0.84960    1.000
    H215     H        0.92350    0.32800    0.79710    1.000
    H216     H        0.00690    0.31780    0.84730    1.000
    H217     H        0.91900    0.29540    0.88580    1.000
    C142     C        0.93080    0.50140    0.06590    1.000
    H218     H        0.94900    0.54110    0.10670    1.000
    H219     H        0.92920    0.44560    0.09040    1.000
    C143     C        0.84220    0.52440    0.04170    1.000
    H220     H        0.82570    0.49070    0.99560    1.000
    H221     H        0.84060    0.58360    0.02600    1.000
    C144     C        0.78150    0.51050    0.10650    1.000
    H222     H        0.72610    0.52800    0.08940    1.000
    H223     H        0.78040    0.45130    0.12010    1.000
    H224     H        0.79810    0.54290    0.15260    1.000
    N84      N        0.00000    0.50000    0.99790    1.000
