data_functionalizedCrystal
_audit_creation_method	'EQeq! by Chris Wilmer'
_symmetry_space_group_name_H-M	'P1'
_symmetry_Int_Tables_number	1
_symmetry_cell_setting	triclinic
loop_
_symmetry_equiv_pos_as_xyz
  x,y,z
_cell_length_a	10.7961
_cell_length_b	8.795
_cell_length_c	25.1748
_cell_angle_alpha	90
_cell_angle_beta	98.811
_cell_angle_gamma	90
loop_
_atom_site_label
_atom_site_type_symbol
_atom_site_fract_x
_atom_site_fract_y
_atom_site_fract_z
_atom_site_charge
Mof_Cu	Cu	0.83861	0.21905	0.26336	0.925
Mof_O 	O 	0.0095	0.1779	0.25196	-0.364
Mof_N 	N 	0.7728	0.1808	0.18547	-0.225
Mof_O 	O 	0.0347	0.9966	0.31456	-0.276
Mof_N 	N 	0.5024	0.9281	0.35902	-0.017
Mof_O 	O 	0.6081	0.974	0.37332	-0.113
Mof_N 	N 	0.399	0.235	0.84159	-0.225
Mof_N 	N 	0.6314	0.1351	0.02122	-0.094
Mof_C 	C 	0.4217	0.0104	0.31696	0.142
Mof_C 	C 	0.2126	0.0845	0.28001	0.007
Mof_C 	C 	0.4737	0.0898	0.27775	-0.132
Mof_C 	C 	0.6249	0.2549	0.11019	-0.216
Mof_H 	H 	0.5573	0.3155	0.096	0.131
Mof_C 	C 	0.6756	0.2659	0.16302	0.14
Mof_H 	H 	0.6413	0.3355	0.1845	-0.001
Mof_O 	O 	0.4585	0.8135	0.37745	-0.114
Mof_C 	C 	0.6753	0.1527	0.07833	0.203
Mof_C 	C 	0.7734	0.0625	0.10051	-0.211
Mof_H 	H 	0.8082	0.9919	0.0796	0.128
Mof_C 	C 	0.5013	0.2159	0.94886	0.197
Mof_C 	C 	0.2614	0.161	0.24006	-0.081
Mof_H 	H 	0.2074	0.2105	0.2133	0.088
Mof_C 	C 	0.3904	0.1657	0.23903	0.042
Mof_H 	H 	0.4209	0.2201	0.2121	0.037
Mof_C 	C 	0.2953	0.0072	0.31839	-0.125
Mof_H 	H 	0.2647	0.9529	0.3453	0.107
Mof_C 	C 	0.0742	0.0826	0.28318	0.295
Mof_C 	C 	0.8198	0.0787	0.15472	0.141
Mof_H 	H 	0.8854	0.0167	0.1701	0.001
Mof_C 	C 	0.5499	0.1285	0.91105	-0.206
Mof_H 	H 	0.6166	0.0625	0.9213	0.124
Mof_N 	N 	0.5491	0.2239	0.00496	-0.099
Mof_C 	C 	0.4962	0.1423	0.85757	0.129
Mof_H 	H 	0.5289	0.0853	0.8319	-0.006
Mof_C 	C 	0.3525	0.3156	0.87883	0.132
Mof_H 	H 	0.2837	0.378	0.8681	0.005
Mof_C 	C 	0.4019	0.3103	0.93215	-0.215
Mof_H 	H 	0.3683	0.3702	0.9569	0.126
Mof_O 	O 	0.6599	0.9728	0.26015	-0.375
Mof_C 	C 	0.6109	0.0907	0.27278	0.381
Mof_O 	O 	0.6643	0.219	0.27946	-0.385
Mof_Cu	Cu	0.33861	0.28095	0.76336	0.925
Mof_O 	O 	0.5095	0.3221	0.75196	-0.365
Mof_N 	N 	0.2728	0.3192	0.68547	-0.224
Mof_O 	O 	0.5347	0.5034	0.81456	-0.279
Mof_N 	N 	0.0024	0.5719	0.85902	-0.018
Mof_O 	O 	0.1081	0.526	0.87332	-0.114
Mof_N 	N 	0.899	0.265	0.34159	-0.225
Mof_N 	N 	0.1314	0.3649	0.52122	-0.094
Mof_C 	C 	0.9217	0.4896	0.81696	0.143
Mof_C 	C 	0.7126	0.4155	0.78001	0.005
Mof_C 	C 	0.9737	0.4102	0.77775	-0.131
Mof_C 	C 	0.1249	0.2451	0.61019	-0.215
Mof_H 	H 	0.0573	0.1845	0.596	0.131
Mof_C 	C 	0.1756	0.2341	0.66302	0.139
Mof_H 	H 	0.1413	0.1645	0.6845	-0
Mof_O 	O 	0.9585	0.6865	0.87745	-0.114
Mof_C 	C 	0.1753	0.3473	0.57833	0.202
Mof_C 	C 	0.2734	0.4375	0.60051	-0.207
Mof_H 	H 	0.3082	0.5081	0.5796	0.126
Mof_C 	C 	0.0013	0.2841	0.44886	0.197
Mof_C 	C 	0.7614	0.339	0.74006	-0.079
Mof_H 	H 	0.7074	0.2895	0.7133	0.088
Mof_C 	C 	0.8904	0.3343	0.73903	0.041
Mof_H 	H 	0.9209	0.2799	0.7121	0.037
Mof_C 	C 	0.7953	0.4928	0.81839	-0.121
Mof_H 	H 	0.7647	0.5471	0.8453	0.104
Mof_C 	C 	0.5742	0.4174	0.78318	0.298
Mof_C 	C 	0.3198	0.4213	0.65472	0.139
Mof_H 	H 	0.3854	0.4833	0.6701	0.003
Mof_C 	C 	0.0499	0.3715	0.41105	-0.204
Mof_H 	H 	0.1166	0.4375	0.4213	0.123
Mof_N 	N 	0.0491	0.2761	0.50496	-0.099
Mof_C 	C 	0.9962	0.3577	0.35757	0.126
Mof_H 	H 	0.0289	0.4147	0.3319	-0.005
Mof_C 	C 	0.8525	0.1844	0.37883	0.131
Mof_H 	H 	0.7837	0.122	0.3681	0.004
Mof_C 	C 	0.9019	0.1897	0.43215	-0.215
Mof_H 	H 	0.8683	0.1298	0.4569	0.126
Mof_O 	O 	0.1599	0.5272	0.76015	-0.378
Mof_C 	C 	0.1109	0.4093	0.77278	0.384
Mof_O 	O 	0.1643	0.281	0.77946	-0.386
Mof_Cu	Cu	0.66139	0.71905	0.23664	0.925
Mof_O 	O 	0.4905	0.6779	0.24804	-0.365
Mof_N 	N 	0.7272	0.6808	0.31453	-0.224
Mof_O 	O 	0.4653	0.4966	0.18544	-0.279
Mof_N 	N 	0.9976	0.4281	0.14098	-0.018
Mof_O 	O 	0.8919	0.474	0.12668	-0.114
Mof_N 	N 	0.101	0.735	0.65841	-0.225
Mof_N 	N 	0.8686	0.6351	0.47878	-0.094
Mof_C 	C 	0.0783	0.5104	0.18304	0.143
Mof_C 	C 	0.2874	0.5845	0.21999	0.005
Mof_C 	C 	0.0263	0.5898	0.22225	-0.131
Mof_C 	C 	0.8751	0.7549	0.38981	-0.215
Mof_H 	H 	0.9427	0.8155	0.404	0.131
Mof_C 	C 	0.8244	0.7659	0.33698	0.139
Mof_H 	H 	0.8587	0.8355	0.3155	-0
Mof_O 	O 	0.0415	0.3135	0.12255	-0.114
Mof_C 	C 	0.8247	0.6527	0.42167	0.202
Mof_C 	C 	0.7266	0.5625	0.39949	-0.207
Mof_H 	H 	0.6918	0.4919	0.4204	0.126
Mof_C 	C 	0.9987	0.7159	0.55114	0.197
Mof_C 	C 	0.2386	0.661	0.25994	-0.079
Mof_H 	H 	0.2926	0.7105	0.2867	0.088
Mof_C 	C 	0.1096	0.6657	0.26097	0.041
Mof_H 	H 	0.0791	0.7201	0.2879	0.037
Mof_C 	C 	0.2047	0.5072	0.18161	-0.121
Mof_H 	H 	0.2353	0.4529	0.1547	0.104
Mof_C 	C 	0.4258	0.5826	0.21682	0.298
Mof_C 	C 	0.6802	0.5787	0.34528	0.139
Mof_H 	H 	0.6146	0.5167	0.3299	0.003
Mof_C 	C 	0.9501	0.6285	0.58895	-0.204
Mof_H 	H 	0.8834	0.5625	0.5787	0.123
Mof_N 	N 	0.9509	0.7239	0.49504	-0.099
Mof_C 	C 	0.0038	0.6423	0.64243	0.126
Mof_H 	H 	0.9711	0.5853	0.6681	-0.005
Mof_C 	C 	0.1475	0.8156	0.62117	0.131
Mof_H 	H 	0.2163	0.878	0.6319	0.004
Mof_C 	C 	0.0981	0.8103	0.56785	-0.215
Mof_H 	H 	0.1317	0.8702	0.5431	0.126
Mof_O 	O 	0.8401	0.4728	0.23985	-0.378
Mof_C 	C 	0.8891	0.5907	0.22722	0.384
Mof_O 	O 	0.8357	0.719	0.22054	-0.386
Mof_Cu	Cu	0.16139	0.78095	0.73664	0.925
Mof_O 	O 	0.9905	0.8221	0.74804	-0.364
Mof_N 	N 	0.2272	0.8192	0.81453	-0.225
Mof_O 	O 	0.9653	0.0034	0.68544	-0.276
Mof_N 	N 	0.4976	0.0719	0.64098	-0.017
Mof_O 	O 	0.3919	0.026	0.62668	-0.113
Mof_N 	N 	0.601	0.765	0.15841	-0.225
Mof_N 	N 	0.3686	0.8649	0.97878	-0.094
Mof_C 	C 	0.5783	0.9896	0.68304	0.142
Mof_C 	C 	0.7874	0.9155	0.71999	0.007
Mof_C 	C 	0.5263	0.9102	0.72225	-0.132
Mof_C 	C 	0.3751	0.7451	0.88981	-0.216
Mof_H 	H 	0.4427	0.6845	0.904	0.131
Mof_C 	C 	0.3244	0.7341	0.83698	0.14
Mof_H 	H 	0.3587	0.6645	0.8155	-0.001
Mof_O 	O 	0.5415	0.1865	0.62255	-0.114
Mof_C 	C 	0.3247	0.8473	0.92167	0.203
Mof_C 	C 	0.2266	0.9375	0.89949	-0.211
Mof_H 	H 	0.1918	0.0081	0.9204	0.128
Mof_C 	C 	0.4987	0.7841	0.05114	0.197
Mof_C 	C 	0.7386	0.839	0.75994	-0.081
Mof_H 	H 	0.7926	0.7895	0.7867	0.088
Mof_C 	C 	0.6096	0.8343	0.76097	0.042
Mof_H 	H 	0.5791	0.7799	0.7879	0.037
Mof_C 	C 	0.7047	0.9928	0.68161	-0.125
Mof_H 	H 	0.7353	0.0471	0.6547	0.107
Mof_C 	C 	0.9258	0.9174	0.71682	0.295
Mof_C 	C 	0.1802	0.9213	0.84528	0.141
Mof_H 	H 	0.1146	0.9833	0.8299	0.001
Mof_C 	C 	0.4501	0.8715	0.08895	-0.206
Mof_H 	H 	0.3834	0.9375	0.0787	0.124
Mof_N 	N 	0.4509	0.7761	0.99504	-0.099
Mof_C 	C 	0.5038	0.8577	0.14243	0.129
Mof_H 	H 	0.4711	0.9147	0.1681	-0.006
Mof_C 	C 	0.6475	0.6844	0.12117	0.132
Mof_H 	H 	0.7163	0.622	0.1319	0.005
Mof_C 	C 	0.5981	0.6897	0.06785	-0.215
Mof_H 	H 	0.6317	0.6298	0.0431	0.126
Mof_O 	O 	0.3401	0.0272	0.73985	-0.375
Mof_C 	C 	0.3891	0.9093	0.72722	0.381
Mof_O 	O 	0.3357	0.781	0.72054	-0.385
_end
