data_functionalizedCrystal
_audit_creation_method	'EQeq! by Chris Wilmer'
_symmetry_space_group_name_H-M	'P1'
_symmetry_Int_Tables_number	1
_symmetry_cell_setting	triclinic
loop_
_symmetry_equiv_pos_as_xyz
  x,y,z
_cell_length_a	12.914
_cell_length_b	12.914
_cell_length_c	14.765
_cell_angle_alpha	91.5224
_cell_angle_beta	91.5224
_cell_angle_gamma	90.3576
loop_
_atom_site_label
_atom_site_type_symbol
_atom_site_fract_x
_atom_site_fract_y
_atom_site_fract_z
_atom_site_charge
Mof_Zn	Zn	0.06584	0.58884	0.77449	1.18
Mof_Zn	Zn	0.41116	0.93416	0.72551	1.18
Mof_Zn	Zn	0.93416	0.41116	0.22551	1.18
Mof_Zn	Zn	0.58884	0.06584	0.27449	1.18
Mof_Zn	Zn	0.61826	0.38174	0.75	1.195
Mof_Zn	Zn	0.38174	0.61826	0.25	1.195
Mof_H 	H 	0.842	0.556	0.509	0.259
Mof_H 	H 	0.7679	0.4763	0.0929	-0.017
Mof_H 	H 	0.7353	0.4961	0.9438	0.068
Mof_H 	H 	0.0042	0.361	0.8903	0.046
Mof_H 	H 	0.031	0.3426	0.0432	0.019
Mof_H 	H 	0.4529	0.4687	0.625	0.013
Mof_H 	H 	0.3207	0.5863	0.6246	0.093
Mof_H 	H 	0.444	0.158	0.991	0.26
Mof_H 	H 	0.5237	0.2321	0.4071	-0.021
Mof_H 	H 	0.5039	0.2647	0.5562	0.075
Mof_H 	H 	0.639	0.9958	0.6097	0.059
Mof_H 	H 	0.6574	0.969	0.4568	0.007
Mof_H 	H 	0.5313	0.5471	0.875	0.013
Mof_H 	H 	0.4137	0.6793	0.8754	0.092
Mof_H 	H 	0.158	0.444	0.491	0.26
Mof_H 	H 	0.2321	0.5237	0.9071	-0.016
Mof_H 	H 	0.2647	0.5039	0.0562	0.069
Mof_H 	H 	0.9958	0.639	0.1097	0.047
Mof_H 	H 	0.969	0.6574	0.9568	0.019
Mof_H 	H 	0.5471	0.5313	0.375	0.013
Mof_H 	H 	0.6793	0.4137	0.3754	0.093
Mof_H 	H 	0.556	0.842	0.009	0.26
Mof_H 	H 	0.4763	0.7679	0.5929	-0.021
Mof_H 	H 	0.4961	0.7353	0.4438	0.075
Mof_H 	H 	0.361	0.0042	0.3903	0.059
Mof_H 	H 	0.3426	0.031	0.5432	0.007
Mof_H 	H 	0.4687	0.4529	0.125	0.013
Mof_H 	H 	0.5863	0.3207	0.1246	0.092
Mof_H 	H 	0.037	0.963	0.75	0.17
Mof_H 	H 	0.963	0.037	0.25	0.17
Mof_C 	C 	0.8526	0.4556	0.8023	0.114
Mof_C 	C 	0.8868	0.5108	0.6705	-0.051
Mof_C 	C 	0.79	0.4706	0.6662	-0.04
Mof_C 	C 	0.9479	0.5637	0.6024	0.37
Mof_C 	C 	0.7124	0.458	0.5911	0.303
Mof_C 	C 	0.8169	0.4543	0.0517	0.055
Mof_C 	C 	0.7972	0.4658	0.9625	-0.093
Mof_C 	C 	0.8665	0.4337	0.8985	-0.009
Mof_C 	C 	0.9556	0.386	0.9306	-0.081
Mof_C 	C 	0.9717	0.3759	0.0225	0.039
Mof_C 	C 	0.1241	0.7999	0.7556	-0.031
Mof_C 	C 	0.0128	0.8068	0.7656	0.281
Mof_C 	C 	0.4429	0.5093	0.6769	0.065
Mof_C 	C 	0.3648	0.5814	0.6752	-0.128
Mof_C 	C 	0.5444	0.1474	0.6977	0.108
Mof_C 	C 	0.4892	0.1132	0.8295	-0.052
Mof_C 	C 	0.5294	0.21	0.8338	-0.04
Mof_C 	C 	0.4363	0.0521	0.8976	0.372
Mof_C 	C 	0.542	0.2876	0.9089	0.303
Mof_C 	C 	0.5457	0.1831	0.4483	0.07
Mof_C 	C 	0.5342	0.2028	0.5375	-0.111
Mof_C 	C 	0.5663	0.1335	0.6015	0.007
Mof_C 	C 	0.614	0.0444	0.5694	-0.112
Mof_C 	C 	0.6241	0.0283	0.4775	0.067
Mof_C 	C 	0.2001	0.8759	0.7444	-0.032
Mof_C 	C 	0.1932	0.9872	0.7344	0.284
Mof_C 	C 	0.4907	0.5571	0.8231	0.064
Mof_C 	C 	0.4186	0.6352	0.8248	-0.127
Mof_C 	C 	0.1474	0.5444	0.1977	0.114
Mof_C 	C 	0.1132	0.4892	0.3295	-0.051
Mof_C 	C 	0.21	0.5294	0.3338	-0.04
Mof_C 	C 	0.0521	0.4363	0.3976	0.37
Mof_C 	C 	0.2876	0.542	0.4089	0.303
Mof_C 	C 	0.1831	0.5457	0.9483	0.055
Mof_C 	C 	0.2028	0.5342	0.0375	-0.093
Mof_C 	C 	0.1335	0.5663	0.1015	-0.009
Mof_C 	C 	0.0444	0.614	0.0694	-0.081
Mof_C 	C 	0.0283	0.6241	0.9775	0.039
Mof_C 	C 	0.8759	0.2001	0.2444	-0.031
Mof_C 	C 	0.9872	0.1932	0.2344	0.281
Mof_C 	C 	0.5571	0.4907	0.3231	0.065
Mof_C 	C 	0.6352	0.4186	0.3248	-0.128
Mof_C 	C 	0.4556	0.8526	0.3023	0.108
Mof_C 	C 	0.5108	0.8868	0.1705	-0.052
Mof_C 	C 	0.4706	0.79	0.1662	-0.04
Mof_C 	C 	0.5637	0.9479	0.1024	0.372
Mof_C 	C 	0.458	0.7124	0.0911	0.303
Mof_C 	C 	0.4543	0.8169	0.5517	0.07
Mof_C 	C 	0.4658	0.7972	0.4625	-0.111
Mof_C 	C 	0.4337	0.8665	0.3985	0.007
Mof_C 	C 	0.386	0.9556	0.4306	-0.112
Mof_C 	C 	0.3759	0.9717	0.5225	0.067
Mof_C 	C 	0.7999	0.1241	0.2556	-0.032
Mof_C 	C 	0.8068	0.0128	0.2656	0.284
Mof_C 	C 	0.5093	0.4429	0.1769	0.064
Mof_C 	C 	0.5814	0.3648	0.1752	-0.127
Mof_C 	C 	0.2726	0.7274	0.75	0.11
Mof_C 	C 	0.3533	0.6467	0.75	-0
Mof_C 	C 	0.7274	0.2726	0.25	0.11
Mof_C 	C 	0.6467	0.3533	0.25	-0
Mof_N 	N 	0.9286	0.502	0.7563	-0.237
Mof_N 	N 	0.766	0.4356	0.7511	-0.253
Mof_N 	N 	0.9049	0.4123	0.0829	-0.251
Mof_N 	N 	0.1717	0.7075	0.7568	-0.24
Mof_N 	N 	0.498	0.0714	0.7437	-0.236
Mof_N 	N 	0.5644	0.234	0.7489	-0.252
Mof_N 	N 	0.5877	0.0951	0.4171	-0.258
Mof_N 	N 	0.2925	0.8283	0.7432	-0.24
Mof_N 	N 	0.0714	0.498	0.2437	-0.237
Mof_N 	N 	0.234	0.5644	0.2489	-0.253
Mof_N 	N 	0.0951	0.5877	0.9171	-0.251
Mof_N 	N 	0.8283	0.2925	0.2432	-0.24
Mof_N 	N 	0.502	0.9286	0.2563	-0.236
Mof_N 	N 	0.4356	0.766	0.2511	-0.252
Mof_N 	N 	0.4123	0.9049	0.5829	-0.258
Mof_N 	N 	0.7075	0.1717	0.2568	-0.24
Mof_N 	N 	0.5058	0.4942	0.75	-0.256
Mof_N 	N 	0.4942	0.5058	0.25	-0.256
Mof_O 	O 	0.0367	0.5949	0.6241	-0.382
Mof_O 	O 	0.9073	0.5761	0.5231	-0.403
Mof_O 	O 	0.6314	0.4086	0.6084	-0.404
Mof_O 	O 	0.7316	0.4956	0.5164	-0.277
Mof_O 	O 	0.964	0.726	0.7802	-0.361
Mof_O 	O 	0.9692	0.896	0.7605	-0.258
Mof_O 	O 	0.4051	0.9633	0.8759	-0.384
Mof_O 	O 	0.4239	0.0927	0.9769	-0.403
Mof_O 	O 	0.5914	0.3686	0.8916	-0.404
Mof_O 	O 	0.5044	0.2684	0.9836	-0.277
Mof_O 	O 	0.274	0.036	0.7198	-0.363
Mof_O 	O 	0.104	0.0308	0.7395	-0.259
Mof_O 	O 	0.9633	0.4051	0.3759	-0.382
Mof_O 	O 	0.0927	0.4239	0.4769	-0.403
Mof_O 	O 	0.3686	0.5914	0.3916	-0.404
Mof_O 	O 	0.2684	0.5044	0.4836	-0.277
Mof_O 	O 	0.036	0.274	0.2198	-0.361
Mof_O 	O 	0.0308	0.104	0.2395	-0.258
Mof_O 	O 	0.5949	0.0367	0.1241	-0.384
Mof_O 	O 	0.5761	0.9073	0.0231	-0.403
Mof_O 	O 	0.4086	0.6314	0.1084	-0.404
Mof_O 	O 	0.4956	0.7316	0.0164	-0.277
Mof_O 	O 	0.726	0.964	0.2802	-0.363
Mof_O 	O 	0.896	0.9692	0.2605	-0.259
_end
