# CIF file generated by openbabel 3.1.0, see https://openbabel.org
data_I
_chemical_name_common 'ja500618z_si_007_clean'
_cell_length_a 8.5538
_cell_length_b 9.0457
_cell_length_c 12.0096
_cell_angle_alpha 90
_cell_angle_beta 90
_cell_angle_gamma 90
_space_group_name_H-M_alt 'P 1'
_space_group_name_Hall 'P 1'
loop_
    _symmetry_equiv_pos_as_xyz
    x,y,z
loop_
    _atom_site_label
    _atom_site_type_symbol
    _atom_site_fract_x
    _atom_site_fract_y
    _atom_site_fract_z
    _atom_site_occupancy
    Mn1      Mn       0.74906    0.75000    0.25000    1.000
    Mn2      Mn       0.75094    0.75000    0.75000    1.000
    Mn3      Mn       0.25094    0.25000    0.75000    1.000
    Mn4      Mn       0.24906    0.25000    0.25000    1.000
    H1       H        0.42000    0.93530    0.73140    1.000
    H2       H        0.75000    0.79380    0.00000    1.000
    H3       H        0.08000    0.93530    0.26860    1.000
    H4       H        0.58000    0.06470    0.26860    1.000
    H5       H        0.08000    0.56470    0.23140    1.000
    H6       H        0.25000    0.20620    0.00000    1.000
    H7       H        0.58000    0.43530    0.23140    1.000
    H8       H        0.75000    0.70620    0.50000    1.000
    H9       H        0.25000    0.29380    0.50000    1.000
    H10      H        0.42000    0.56470    0.76860    1.000
    H11      H        0.92000    0.06470    0.73140    1.000
    H12      H        0.92000    0.43530    0.76860    1.000
    C1       C        0.51698    0.48440    0.28254    1.000
    C2       C        0.01698    0.51560    0.28254    1.000
    C3       C        0.25000    0.19100    0.50000    1.000
    C4       C        0.98302    0.48440    0.71746    1.000
    C5       C        0.51698    0.01560    0.21746    1.000
    C6       C        0.48302    0.51560    0.71746    1.000
    C7       C        0.48302    0.98440    0.78254    1.000
    C8       C        0.98302    0.01560    0.78254    1.000
    C9       C        0.01698    0.98440    0.21746    1.000
    C10      C        0.75000    0.69100    0.00000    1.000
    C11      C        0.25000    0.30900    0.00000    1.000
    C12      C        0.75000    0.80900    0.50000    1.000
    O1       O        0.74612    0.86964    0.59196    1.000
    O2       O        0.75388    0.63036    0.09196    1.000
    O3       O        0.25388    0.36964    0.09196    1.000
    O4       O        0.44450    0.38875    0.69194    1.000
    O5       O        0.05550    0.38875    0.30806    1.000
    O6       O        0.40223    0.08362    0.18130    1.000
    O7       O        0.05550    0.11125    0.19194    1.000
    O8       O        0.09777    0.41638    0.68130    1.000
    O9       O        0.25388    0.13036    0.40804    1.000
    O10      O        0.55550    0.88875    0.19194    1.000
    O11      O        0.74612    0.63036    0.90804    1.000
    O12      O        0.75388    0.86964    0.40804    1.000
    O13      O        0.59777    0.58362    0.68130    1.000
    O14      O        0.94450    0.61125    0.69194    1.000
    O15      O        0.09777    0.08362    0.81870    1.000
    O16      O        0.90223    0.91638    0.18130    1.000
    O17      O        0.94450    0.88875    0.80806    1.000
    O18      O        0.24612    0.36964    0.90804    1.000
    O19      O        0.59777    0.91638    0.81870    1.000
    O20      O        0.40223    0.41638    0.31870    1.000
    O21      O        0.24612    0.13036    0.59196    1.000
    O22      O        0.90223    0.58362    0.31870    1.000
    O23      O        0.55550    0.61125    0.30806    1.000
    O24      O        0.44450    0.11125    0.80806    1.000
