data_functionalizedCrystal
_audit_creation_method	'EQeq! by Chris Wilmer'
_symmetry_space_group_name_H-M	'P1'
_symmetry_Int_Tables_number	1
_symmetry_cell_setting	triclinic
loop_
_symmetry_equiv_pos_as_xyz
  x,y,z
_cell_length_a	8.7726
_cell_length_b	12.182
_cell_length_c	21.9007
_cell_angle_alpha	92.175
_cell_angle_beta	101.553
_cell_angle_gamma	90
loop_
_atom_site_label
_atom_site_type_symbol
_atom_site_fract_x
_atom_site_fract_y
_atom_site_fract_z
_atom_site_charge
Mof_Ag	Ag	0.56375	0.43103	0.82594	0.657
Mof_Ag	Ag	0.73781	0.06897	0.17406	0.654
Mof_Ag	Ag	0.43625	0.56897	0.17406	0.657
Mof_Ag	Ag	0.26219	0.93103	0.82594	0.654
Mof_H 	H 	0.495	0.147	0.8026	0.004
Mof_H 	H 	0.1842	0.1583	0.905	-0.008
Mof_H 	H 	0.2296	0.4302	0.8752	0.068
Mof_H 	H 	0.1798	0.3662	0.9288	0.071
Mof_H 	H 	0.557	0.3281	0.9634	0.057
Mof_H 	H 	0.2606	0.5723	0.9626	0.051
Mof_H 	H 	0.6924	0.353	0.1974	0.003
Mof_H 	H 	0.2792	0.3417	0.095	-0.01
Mof_H 	H 	0.3544	0.0698	0.1248	0.068
Mof_H 	H 	0.251	0.1338	0.0712	0.072
Mof_H 	H 	0.5936	0.1719	0.0366	0.057
Mof_H 	H 	0.298	0.9277	0.0374	0.05
Mof_H 	H 	0.505	0.853	0.1974	0.003
Mof_H 	H 	0.8158	0.8417	0.095	-0.009
Mof_H 	H 	0.7704	0.5698	0.1248	0.068
Mof_H 	H 	0.8202	0.6338	0.0712	0.071
Mof_H 	H 	0.443	0.6719	0.0366	0.057
Mof_H 	H 	0.7394	0.4277	0.0374	0.051
Mof_H 	H 	0.3076	0.647	0.8026	0.003
Mof_H 	H 	0.7208	0.6583	0.905	-0.01
Mof_H 	H 	0.6456	0.9302	0.8752	0.068
Mof_H 	H 	0.749	0.8662	0.9288	0.072
Mof_H 	H 	0.4064	0.8281	0.9634	0.057
Mof_H 	H 	0.702	0.0723	0.9626	0.05
Mof_C 	C 	0.42845	0.1732	0.8279	0.109
Mof_C 	C 	0.26038	0.1775	0.88316	0.102
Mof_C 	C 	0.2666	0.3816	0.909	-0.134
Mof_C 	C 	0.39086	0.4403	0.95572	0.056
Mof_C 	C 	0.53202	0.3973	0.97764	-0.086
Mof_C 	C 	0.35767	0.542	0.97754	-0.081
Mof_C 	C 	0.60055	0.3268	0.1721	0.108
Mof_C 	C 	0.37722	0.3225	0.11684	0.102
Mof_C 	C 	0.3576	0.1184	0.091	-0.134
Mof_C 	C 	0.43514	0.0597	0.04428	0.056
Mof_C 	C 	0.55438	0.1027	0.02236	-0.089
Mof_C 	C 	0.38013	0.958	0.02246	-0.078
Mof_C 	C 	0.57155	0.8268	0.1721	0.109
Mof_C 	C 	0.73962	0.8225	0.11684	0.102
Mof_C 	C 	0.7334	0.6184	0.091	-0.134
Mof_C 	C 	0.60914	0.5597	0.04428	0.056
Mof_C 	C 	0.46798	0.6027	0.02236	-0.086
Mof_C 	C 	0.64233	0.458	0.02246	-0.081
Mof_C 	C 	0.39945	0.6732	0.8279	0.108
Mof_C 	C 	0.62278	0.6775	0.88316	0.102
Mof_C 	C 	0.6424	0.8816	0.909	-0.134
Mof_C 	C 	0.56486	0.9403	0.95572	0.056
Mof_C 	C 	0.44562	0.8973	0.97764	-0.089
Mof_C 	C 	0.61987	0.042	0.97754	-0.078
Mof_N 	N 	0.42379	0.277	0.84638	-0.153
Mof_N 	N 	0.32626	0.1081	0.84932	-0.203
Mof_N 	N 	0.31581	0.2779	0.88242	-0.09
Mof_N 	N 	0.57741	0.223	0.15362	-0.153
Mof_N 	N 	0.47694	0.3919	0.15068	-0.204
Mof_N 	N 	0.43339	0.2221	0.11758	-0.09
Mof_N 	N 	0.57621	0.723	0.15362	-0.153
Mof_N 	N 	0.67374	0.8919	0.15068	-0.203
Mof_N 	N 	0.68419	0.7221	0.11758	-0.09
Mof_N 	N 	0.42259	0.777	0.84638	-0.153
Mof_N 	N 	0.52306	0.6081	0.84932	-0.204
Mof_N 	N 	0.56661	0.7779	0.88242	-0.09
Mof_Ag	Ag	0.03877	0.96311	0.67216	0.644
Mof_Ag	Ag	0.96123	0.03689	0.32784	0.644
Mof_H 	H 	0.9413	0.7304	0.5842	0.002
Mof_H 	H 	0.6606	0.9722	0.5938	-0.003
Mof_H 	H 	0.8072	0.6467	0.4772	0.082
Mof_H 	H 	0.6624	0.7107	0.4424	0.087
Mof_H 	H 	0.5097	0.6594	0.5608	0.063
Mof_H 	H 	0.6569	0.4822	0.427	0.055
Mof_H 	H 	0.2472	0.1729	0.6718	0.007
Mof_H 	H 	0.8694	0.1487	0.7388	0.004
Mof_H 	H 	0.0908	0.4353	0.7528	0.012
Mof_H 	H 	0.0587	0.2696	0.4158	0.002
Mof_H 	H 	0.3394	0.0278	0.4062	-0.003
Mof_H 	H 	0.1928	0.3533	0.5228	0.082
Mof_H 	H 	0.3376	0.2893	0.5576	0.087
Mof_H 	H 	0.4903	0.3406	0.4392	0.063
Mof_H 	H 	0.3431	0.5178	0.573	0.055
Mof_H 	H 	0.7528	0.8271	0.3282	0.007
Mof_H 	H 	0.1306	0.8513	0.2612	0.004
Mof_H 	H 	0.9092	0.5647	0.2472	0.012
Mof_C 	C 	0.85703	0.7778	0.57646	0.093
Mof_C 	C 	0.70295	0.9077	0.5807	0.095
Mof_C 	C 	0.70785	0.6776	0.4815	-0.139
Mof_C 	C 	0.60122	0.5851	0.49284	0.066
Mof_C 	C 	0.50634	0.5952	0.53628	-0.079
Mof_C 	C 	0.59427	0.4899	0.45654	-0.094
Mof_C 	C 	0.3298	0.3795	0.6994	0.322
Mof_C 	C 	0.19213	0.3154	0.71066	-0.147
Mof_C 	C 	0.17375	0.2052	0.6919	0.09
Mof_C 	C 	0.95142	0.1912	0.73144	0.098
Mof_C 	C 	0.95985	0.2998	0.7521	-0.167
Mof_C 	C 	0.0825	0.3613	0.7404	0.086
Mof_C 	C 	0.8387	0.348	0.7854	0.368
Mof_C 	C 	0.14297	0.2222	0.42354	0.093
Mof_C 	C 	0.29705	0.0923	0.4193	0.095
Mof_C 	C 	0.29215	0.3224	0.5185	-0.139
Mof_C 	C 	0.39878	0.4149	0.50716	0.066
Mof_C 	C 	0.49366	0.4048	0.46372	-0.079
Mof_C 	C 	0.40573	0.5101	0.54346	-0.094
Mof_C 	C 	0.6702	0.6205	0.3006	0.322
Mof_C 	C 	0.80787	0.6846	0.28934	-0.147
Mof_C 	C 	0.82625	0.7948	0.3081	0.09
Mof_C 	C 	0.04858	0.8088	0.26856	0.098
Mof_C 	C 	0.04015	0.7002	0.2479	-0.167
Mof_C 	C 	0.9175	0.6387	0.2596	0.086
Mof_C 	C 	0.1613	0.652	0.2146	0.368
Mof_N 	N 	0.8432	0.8686	0.6096	-0.196
Mof_N 	N 	0.63195	0.8463	0.5323	-0.101
Mof_N 	N 	0.73497	0.7634	0.53094	-0.083
Mof_N 	N 	0.05467	0.1431	0.70134	-0.203
Mof_N 	N 	0.1568	0.1314	0.3904	-0.196
Mof_N 	N 	0.36805	0.1537	0.4677	-0.101
Mof_N 	N 	0.26503	0.2366	0.46906	-0.083
Mof_N 	N 	0.94533	0.8569	0.29866	-0.203
Mof_O 	O 	0.33894	0.4787	0.71508	-0.326
Mof_O 	O 	0.43125	0.3297	0.6765	-0.341
Mof_O 	O 	0.8266	0.4473	0.79	-0.368
Mof_O 	O 	0.7535	0.2865	0.8046	-0.345
Mof_O 	O 	0.66106	0.5213	0.28492	-0.326
Mof_O 	O 	0.56875	0.6703	0.3235	-0.341
Mof_O 	O 	0.1734	0.5527	0.21	-0.368
Mof_O 	O 	0.2465	0.7135	0.1954	-0.345
Mof_Ag	Ag	0.36661	0.53689	0.32784	0.651
Mof_Ag	Ag	0.63339	0.46311	0.67216	0.651
Mof_H 	H 	0.3571	0.7696	0.4158	0.001
Mof_H 	H 	0.0668	0.5278	0.4062	-0.003
Mof_H 	H 	0.33	0.8533	0.5228	0.081
Mof_H 	H 	0.22	0.7893	0.5576	0.086
Mof_H 	H 	0.9489	0.8406	0.4392	0.062
Mof_H 	H 	0.2299	0.0178	0.573	0.055
Mof_H 	H 	0.5754	0.3271	0.3282	0.006
Mof_H 	H 	0.1306	0.3513	0.2612	0.003
Mof_H 	H 	0.338	0.0647	0.2472	0.013
Mof_H 	H 	0.6429	0.2304	0.5842	0.001
Mof_H 	H 	0.9332	0.4722	0.5938	-0.003
Mof_H 	H 	0.67	0.1467	0.4772	0.081
Mof_H 	H 	0.78	0.2107	0.4424	0.086
Mof_H 	H 	0.0511	0.1594	0.5608	0.062
Mof_H 	H 	0.7701	0.9822	0.427	0.055
Mof_H 	H 	0.4246	0.6729	0.6718	0.006
Mof_H 	H 	0.8694	0.6487	0.7388	0.003
Mof_H 	H 	0.662	0.9353	0.7528	0.013
Mof_C 	C 	0.28057	0.7222	0.42354	0.093
Mof_C 	C 	0.12225	0.5923	0.4193	0.094
Mof_C 	C 	0.22635	0.8224	0.5185	-0.136
Mof_C 	C 	0.10838	0.9149	0.50716	0.059
Mof_C 	C 	0.97006	0.9048	0.46372	-0.074
Mof_C 	C 	0.13773	0.0101	0.54346	-0.09
Mof_C 	C 	0.6304	0.1205	0.3006	0.322
Mof_C 	C 	0.48147	0.1846	0.28934	-0.147
Mof_C 	C 	0.48185	0.2948	0.3081	0.09
Mof_C 	C 	0.21998	0.3088	0.26856	0.101
Mof_C 	C 	0.20775	0.2002	0.2479	-0.168
Mof_C 	C 	0.3421	0.1387	0.2596	0.085
Mof_C 	C 	0.0533	0.152	0.2146	0.372
Mof_C 	C 	0.71943	0.2778	0.57646	0.093
Mof_C 	C 	0.87775	0.4077	0.5807	0.094
Mof_C 	C 	0.77365	0.1776	0.4815	-0.136
Mof_C 	C 	0.89162	0.0851	0.49284	0.059
Mof_C 	C 	0.02994	0.0952	0.53628	-0.074
Mof_C 	C 	0.86227	0.9899	0.45654	-0.09
Mof_C 	C 	0.3696	0.8795	0.6994	0.322
Mof_C 	C 	0.51853	0.8154	0.71066	-0.147
Mof_C 	C 	0.51815	0.7052	0.6919	0.09
Mof_C 	C 	0.78002	0.6912	0.73144	0.101
Mof_C 	C 	0.79225	0.7998	0.7521	-0.168
Mof_C 	C 	0.6579	0.8613	0.7404	0.085
Mof_C 	C 	0.9467	0.848	0.7854	0.372
Mof_N 	N 	0.2336	0.6314	0.3904	-0.198
Mof_N 	N 	0.09965	0.6537	0.4677	-0.101
Mof_N 	N 	0.20403	0.7366	0.46906	-0.084
Mof_N 	N 	0.35333	0.3569	0.29866	-0.205
Mof_N 	N 	0.7664	0.3686	0.6096	-0.198
Mof_N 	N 	0.90035	0.3463	0.5323	-0.101
Mof_N 	N 	0.79597	0.2634	0.53094	-0.084
Mof_N 	N 	0.64667	0.6431	0.70134	-0.205
Mof_O 	O 	0.62386	0.0213	0.28492	-0.326
Mof_O 	O 	0.75475	0.1703	0.3235	-0.341
Mof_O 	O 	0.0366	0.0527	0.21	-0.367
Mof_O 	O 	0.9489	0.2135	0.1954	-0.347
Mof_O 	O 	0.37614	0.9787	0.71508	-0.326
Mof_O 	O 	0.24525	0.8297	0.6765	-0.341
Mof_O 	O 	0.9634	0.9473	0.79	-0.367
Mof_O 	O 	0.0511	0.7865	0.8046	-0.347
_end
