data_functionalizedCrystal
_audit_creation_method	'EQeq! by Chris Wilmer'
_symmetry_space_group_name_H-M	'P1'
_symmetry_Int_Tables_number	1
_symmetry_cell_setting	triclinic
loop_
_symmetry_equiv_pos_as_xyz
  x,y,z
_cell_length_a	20.4056
_cell_length_b	20.4056
_cell_length_c	20.4056
_cell_angle_alpha	109.471
_cell_angle_beta	109.471
_cell_angle_gamma	109.471
loop_
_atom_site_label
_atom_site_type_symbol
_atom_site_fract_x
_atom_site_fract_y
_atom_site_fract_z
_atom_site_charge
Mof_Cu	Cu	0.5	0.25	0.75	0.867
Mof_Cu	Cu	0.5	0.75	0.25	0.866
Mof_Cu	Cu	0.25	0.5	0.75	0.866
Mof_Cu	Cu	0.75	0.5	0.25	0.866
Mof_Cu	Cu	0.75	0.25	0.5	0.866
Mof_Cu	Cu	0.25	0.75	0.5	0.866
Mof_H 	H 	0.5976	0.1667	0.6735	0.121
Mof_H 	H 	0.6293	0.245	0.7511	0.108
Mof_H 	H 	0.4568	0.3692	0.5388	0.172
Mof_H 	H 	0.3806	0.2874	0.5	0.161
Mof_H 	H 	0.4932	0.9241	0.3265	0.121
Mof_H 	H 	0.4939	0.8782	0.2489	0.108
Mof_H 	H 	0.8304	0.918	0.4612	0.172
Mof_H 	H 	0.7874	0.8806	0.5	0.16
Mof_H 	H 	0.5068	0.8333	0.4309	0.121
Mof_H 	H 	0.5061	0.755	0.3843	0.108
Mof_H 	H 	0.1696	0.6308	0.0876	0.172
Mof_H 	H 	0.2126	0.7126	0.0932	0.16
Mof_H 	H 	0.4024	0.0759	0.5691	0.12
Mof_H 	H 	0.3707	0.1218	0.6157	0.108
Mof_H 	H 	0.5432	0.082	0.9124	0.172
Mof_H 	H 	0.6194	0.1194	0.9068	0.16
Mof_H 	H 	0.4309	0.5068	0.8333	0.121
Mof_H 	H 	0.3843	0.5061	0.755	0.108
Mof_H 	H 	0.0876	0.1696	0.6308	0.172
Mof_H 	H 	0.0932	0.2126	0.7126	0.16
Mof_H 	H 	0.5691	0.4024	0.0759	0.12
Mof_H 	H 	0.6157	0.3707	0.1218	0.108
Mof_H 	H 	0.9124	0.5432	0.082	0.172
Mof_H 	H 	0.9068	0.6194	0.1194	0.16
Mof_H 	H 	0.6735	0.5976	0.1667	0.121
Mof_H 	H 	0.7511	0.6293	0.245	0.108
Mof_H 	H 	0.5388	0.4568	0.3692	0.172
Mof_H 	H 	0.5	0.3806	0.2874	0.161
Mof_H 	H 	0.3265	0.4932	0.9241	0.121
Mof_H 	H 	0.2489	0.4939	0.8782	0.108
Mof_H 	H 	0.4612	0.8304	0.918	0.172
Mof_H 	H 	0.5	0.7874	0.8806	0.16
Mof_H 	H 	0.9241	0.3265	0.4932	0.121
Mof_H 	H 	0.8782	0.2489	0.4939	0.108
Mof_H 	H 	0.918	0.4612	0.8304	0.172
Mof_H 	H 	0.8806	0.5	0.7874	0.16
Mof_H 	H 	0.1667	0.6735	0.5976	0.121
Mof_H 	H 	0.245	0.7511	0.6293	0.108
Mof_H 	H 	0.3692	0.5388	0.4568	0.172
Mof_H 	H 	0.2874	0.5	0.3806	0.161
Mof_H 	H 	0.0759	0.5691	0.4024	0.12
Mof_H 	H 	0.1218	0.6157	0.3707	0.108
Mof_H 	H 	0.082	0.9124	0.5432	0.172
Mof_H 	H 	0.1194	0.9068	0.6194	0.16
Mof_H 	H 	0.8333	0.4309	0.5068	0.121
Mof_H 	H 	0.755	0.3843	0.5061	0.108
Mof_H 	H 	0.6308	0.0876	0.1696	0.172
Mof_H 	H 	0.7126	0.0932	0.2126	0.16
Mof_H 	H 	0.9241	0.4932	0.3265	0.121
Mof_H 	H 	0.8782	0.4939	0.2489	0.108
Mof_H 	H 	0.918	0.8304	0.4612	0.172
Mof_H 	H 	0.8806	0.7874	0.5	0.16
Mof_H 	H 	0.1667	0.5976	0.6735	0.121
Mof_H 	H 	0.245	0.6293	0.7511	0.108
Mof_H 	H 	0.3692	0.4568	0.5388	0.172
Mof_H 	H 	0.2874	0.3806	0.5	0.161
Mof_H 	H 	0.0759	0.4024	0.5691	0.12
Mof_H 	H 	0.1218	0.3707	0.6157	0.108
Mof_H 	H 	0.082	0.5432	0.9124	0.172
Mof_H 	H 	0.1194	0.6194	0.9068	0.16
Mof_H 	H 	0.8333	0.5068	0.4309	0.121
Mof_H 	H 	0.755	0.5061	0.3843	0.108
Mof_H 	H 	0.6308	0.1696	0.0876	0.172
Mof_H 	H 	0.7126	0.2126	0.0932	0.16
Mof_H 	H 	0.5976	0.6735	0.1667	0.121
Mof_H 	H 	0.6293	0.7511	0.245	0.108
Mof_H 	H 	0.4568	0.5388	0.3692	0.172
Mof_H 	H 	0.3806	0.5	0.2874	0.161
Mof_H 	H 	0.4932	0.3265	0.9241	0.121
Mof_H 	H 	0.4939	0.2489	0.8782	0.108
Mof_H 	H 	0.8304	0.4612	0.918	0.172
Mof_H 	H 	0.7874	0.5	0.8806	0.16
Mof_H 	H 	0.5068	0.4309	0.8333	0.121
Mof_H 	H 	0.5061	0.3843	0.755	0.108
Mof_H 	H 	0.1696	0.0876	0.6308	0.172
Mof_H 	H 	0.2126	0.0932	0.7126	0.16
Mof_H 	H 	0.4024	0.5691	0.0759	0.12
Mof_H 	H 	0.3707	0.6157	0.1218	0.108
Mof_H 	H 	0.5432	0.9124	0.082	0.172
Mof_H 	H 	0.6194	0.9068	0.1194	0.16
Mof_H 	H 	0.4309	0.8333	0.5068	0.121
Mof_H 	H 	0.3843	0.755	0.5061	0.108
Mof_H 	H 	0.0876	0.6308	0.1696	0.172
Mof_H 	H 	0.0932	0.7126	0.2126	0.16
Mof_H 	H 	0.5691	0.0759	0.4024	0.12
Mof_H 	H 	0.6157	0.1218	0.3707	0.108
Mof_H 	H 	0.9124	0.082	0.5432	0.172
Mof_H 	H 	0.9068	0.1194	0.6194	0.16
Mof_H 	H 	0.6735	0.1667	0.5976	0.121
Mof_H 	H 	0.7511	0.245	0.6293	0.108
Mof_H 	H 	0.5388	0.3692	0.4568	0.172
Mof_H 	H 	0.5	0.2874	0.3806	0.161
Mof_H 	H 	0.3265	0.9241	0.4932	0.121
Mof_H 	H 	0.2489	0.8782	0.4939	0.108
Mof_H 	H 	0.4612	0.918	0.8304	0.172
Mof_H 	H 	0.5	0.8806	0.7874	0.16
Mof_H 	H 	0.7376	0.2388	0.7376	-0.012
Mof_H 	H 	0.7352	0.3134	0.7352	-0.009
Mof_H 	H 	0.4079	0.3188	0.4079	-0.06
Mof_H 	H 	0.3962	0.2358	0.3962	-0.052
Mof_H 	H 	0.5012	0	0.2624	-0.011
Mof_H 	H 	0.5782	0	0.2648	-0.008
Mof_H 	H 	0.9109	0	0.5921	-0.059
Mof_H 	H 	0.8396	0	0.6038	-0.051
Mof_H 	H 	0.4988	0.7612	0.4988	-0.012
Mof_H 	H 	0.4218	0.6866	0.4218	-0.009
Mof_H 	H 	0.0891	0.6812	0.0891	-0.061
Mof_H 	H 	0.1604	0.7642	0.1604	-0.052
Mof_H 	H 	0.2624	-3.47625e-17	0.5012	-0.011
Mof_H 	H 	0.2648	-3.47625e-17	0.5782	-0.008
Mof_H 	H 	0.5921	-6.95249e-17	0.9109	-0.059
Mof_H 	H 	0.6038	-6.95249e-17	0.8396	-0.051
Mof_H 	H 	0.4988	0.4988	0.7612	-0.012
Mof_H 	H 	0.4218	0.4218	0.6866	-0.009
Mof_H 	H 	0.0891	0.0891	0.6812	-0.061
Mof_H 	H 	0.1604	0.1604	0.7642	-0.052
Mof_H 	H 	0.5012	0.2624	-0	-0.011
Mof_H 	H 	0.5782	0.2648	-0	-0.008
Mof_H 	H 	0.9109	0.5921	-0	-0.059
Mof_H 	H 	0.8396	0.6038	-0	-0.051
Mof_H 	H 	0.7376	0.7376	0.2388	-0.012
Mof_H 	H 	0.7352	0.7352	0.3134	-0.009
Mof_H 	H 	0.4079	0.4079	0.3188	-0.06
Mof_H 	H 	0.3962	0.3962	0.2358	-0.052
Mof_H 	H 	0.2624	0.5012	-0	-0.011
Mof_H 	H 	0.2648	0.5782	-0	-0.008
Mof_H 	H 	0.5921	0.9109	-0	-0.059
Mof_H 	H 	0.6038	0.8396	-0	-0.051
Mof_H 	H 	-0	0.2624	0.5012	-0.011
Mof_H 	H 	-3.47625e-17	0.2648	0.5782	-0.008
Mof_H 	H 	1.73812e-17	0.5921	0.9109	-0.059
Mof_H 	H 	-0	0.6038	0.8396	-0.051
Mof_H 	H 	0.2388	0.7376	0.7376	-0.012
Mof_H 	H 	0.3134	0.7352	0.7352	-0.009
Mof_H 	H 	0.3188	0.4079	0.4079	-0.06
Mof_H 	H 	0.2358	0.3962	0.3962	-0.052
Mof_H 	H 	-0	0.5012	0.2624	-0.011
Mof_H 	H 	-0	0.5782	0.2648	-0.008
Mof_H 	H 	1.73812e-17	0.9109	0.5921	-0.059
Mof_H 	H 	1.73812e-17	0.8396	0.6038	-0.051
Mof_H 	H 	0.7612	0.4988	0.4988	-0.012
Mof_H 	H 	0.6866	0.4218	0.4218	-0.009
Mof_H 	H 	0.6812	0.0891	0.0891	-0.061
Mof_H 	H 	0.7642	0.1604	0.1604	-0.052
Mof_C 	C 	0.484	0.29	0.5612	0.19
Mof_C 	C 	0.5756	0.2476	0.6506	0.135
Mof_C 	C 	0.6243	0.2242	0.6989	-0.327
Mof_C 	C 	0.4343	0.3122	0.5091	-0.429
Mof_C 	C 	0.7288	0.9228	0.4388	0.191
Mof_C 	C 	0.597	0.925	0.3494	0.137
Mof_C 	C 	0.5253	0.9254	0.3011	-0.325
Mof_C 	C 	0.8031	0.9252	0.4909	-0.424
Mof_C 	C 	0.2712	0.71	0.194	0.19
Mof_C 	C 	0.403	0.7524	0.328	0.136
Mof_C 	C 	0.4747	0.7758	0.4001	-0.328
Mof_C 	C 	0.1969	0.6878	0.1221	-0.428
Mof_C 	C 	0.516	0.0772	0.806	0.19
Mof_C 	C 	0.4244	0.075	0.672	0.135
Mof_C 	C 	0.3757	0.0746	0.5999	-0.326
Mof_C 	C 	0.5657	0.0748	0.8779	-0.426
Mof_C 	C 	0.194	0.2712	0.71	0.19
Mof_C 	C 	0.328	0.403	0.7524	0.136
Mof_C 	C 	0.4001	0.4747	0.7758	-0.328
Mof_C 	C 	0.1221	0.1969	0.6878	-0.428
Mof_C 	C 	0.806	0.516	0.0772	0.19
Mof_C 	C 	0.672	0.4244	0.075	0.135
Mof_C 	C 	0.5999	0.3757	0.0746	-0.326
Mof_C 	C 	0.8779	0.5657	0.0748	-0.426
Mof_C 	C 	0.5612	0.484	0.29	0.19
Mof_C 	C 	0.6506	0.5756	0.2476	0.135
Mof_C 	C 	0.6989	0.6243	0.2242	-0.327
Mof_C 	C 	0.5091	0.4343	0.3122	-0.429
Mof_C 	C 	0.4388	0.7288	0.9228	0.191
Mof_C 	C 	0.3494	0.597	0.925	0.137
Mof_C 	C 	0.3011	0.5253	0.9254	-0.325
Mof_C 	C 	0.4909	0.8031	0.9252	-0.424
Mof_C 	C 	0.9228	0.4388	0.7288	0.191
Mof_C 	C 	0.925	0.3494	0.597	0.137
Mof_C 	C 	0.9254	0.3011	0.5253	-0.325
Mof_C 	C 	0.9252	0.4909	0.8031	-0.424
Mof_C 	C 	0.29	0.5612	0.484	0.19
Mof_C 	C 	0.2476	0.6506	0.5756	0.135
Mof_C 	C 	0.2242	0.6989	0.6243	-0.327
Mof_C 	C 	0.3122	0.5091	0.4343	-0.429
Mof_C 	C 	0.0772	0.806	0.516	0.19
Mof_C 	C 	0.075	0.672	0.4244	0.135
Mof_C 	C 	0.0746	0.5999	0.3757	-0.326
Mof_C 	C 	0.0748	0.8779	0.5657	-0.426
Mof_C 	C 	0.71	0.194	0.2712	0.19
Mof_C 	C 	0.7524	0.328	0.403	0.136
Mof_C 	C 	0.7758	0.4001	0.4747	-0.328
Mof_C 	C 	0.6878	0.1221	0.1969	-0.428
Mof_C 	C 	0.9228	0.7288	0.4388	0.191
Mof_C 	C 	0.925	0.597	0.3494	0.137
Mof_C 	C 	0.9254	0.5253	0.3011	-0.325
Mof_C 	C 	0.9252	0.8031	0.4909	-0.424
Mof_C 	C 	0.29	0.484	0.5612	0.19
Mof_C 	C 	0.2476	0.5756	0.6506	0.135
Mof_C 	C 	0.2242	0.6243	0.6989	-0.327
Mof_C 	C 	0.3122	0.4343	0.5091	-0.429
Mof_C 	C 	0.0772	0.516	0.806	0.19
Mof_C 	C 	0.075	0.4244	0.672	0.135
Mof_C 	C 	0.0746	0.3757	0.5999	-0.326
Mof_C 	C 	0.0748	0.5657	0.8779	-0.426
Mof_C 	C 	0.71	0.2712	0.194	0.19
Mof_C 	C 	0.7524	0.403	0.328	0.136
Mof_C 	C 	0.7758	0.4747	0.4001	-0.328
Mof_C 	C 	0.6878	0.1969	0.1221	-0.428
Mof_C 	C 	0.484	0.5612	0.29	0.19
Mof_C 	C 	0.5756	0.6506	0.2476	0.135
Mof_C 	C 	0.6243	0.6989	0.2242	-0.327
Mof_C 	C 	0.4343	0.5091	0.3122	-0.429
Mof_C 	C 	0.7288	0.4388	0.9228	0.191
Mof_C 	C 	0.597	0.3494	0.925	0.137
Mof_C 	C 	0.5253	0.3011	0.9254	-0.325
Mof_C 	C 	0.8031	0.4909	0.9252	-0.424
Mof_C 	C 	0.2712	0.194	0.71	0.19
Mof_C 	C 	0.403	0.328	0.7524	0.136
Mof_C 	C 	0.4747	0.4001	0.7758	-0.328
Mof_C 	C 	0.1969	0.1221	0.6878	-0.428
Mof_C 	C 	0.516	0.806	0.0772	0.19
Mof_C 	C 	0.4244	0.672	0.075	0.135
Mof_C 	C 	0.3757	0.5999	0.0746	-0.326
Mof_C 	C 	0.5657	0.8779	0.0748	-0.426
Mof_C 	C 	0.194	0.71	0.2712	0.19
Mof_C 	C 	0.328	0.7524	0.403	0.136
Mof_C 	C 	0.4001	0.7758	0.4747	-0.328
Mof_C 	C 	0.1221	0.6878	0.1969	-0.428
Mof_C 	C 	0.806	0.0772	0.516	0.19
Mof_C 	C 	0.672	0.075	0.4244	0.135
Mof_C 	C 	0.5999	0.0746	0.3757	-0.326
Mof_C 	C 	0.8779	0.0748	0.5657	-0.426
Mof_C 	C 	0.5612	0.29	0.484	0.19
Mof_C 	C 	0.6506	0.2476	0.5756	0.135
Mof_C 	C 	0.6989	0.2242	0.6243	-0.327
Mof_C 	C 	0.5091	0.3122	0.4343	-0.429
Mof_C 	C 	0.4388	0.9228	0.7288	0.191
Mof_C 	C 	0.3494	0.925	0.597	0.137
Mof_C 	C 	0.3011	0.9254	0.5253	-0.325
Mof_C 	C 	0.4909	0.9252	0.8031	-0.424
Mof_C 	C 	0.5435	0.2776	0.5435	-0.089
Mof_C 	C 	0.5881	0.2558	0.5881	-0.057
Mof_C 	C 	0.7072	0.2558	0.7072	0.134
Mof_C 	C 	0.4313	0.2928	0.4313	0.276
Mof_C 	C 	0.7341	3.47625e-17	0.4565	-0.09
Mof_C 	C 	0.6677	0	0.4119	-0.059
Mof_C 	C 	0.5486	-3.47625e-17	0.2928	0.132
Mof_C 	C 	0.8615	0	0.5687	0.271
Mof_C 	C 	0.2659	0.7224	0.2659	-0.089
Mof_C 	C 	0.3323	0.7442	0.3323	-0.057
Mof_C 	C 	0.4514	0.7442	0.4514	0.135
Mof_C 	C 	0.1385	0.7072	0.1385	0.276
Mof_C 	C 	0.4565	-6.95249e-17	0.7341	-0.09
Mof_C 	C 	0.4119	-6.95249e-17	0.6677	-0.059
Mof_C 	C 	0.2928	-6.95249e-17	0.5486	0.132
Mof_C 	C 	0.5687	-6.95249e-17	0.8615	0.271
Mof_C 	C 	0.2659	0.2659	0.7224	-0.089
Mof_C 	C 	0.3323	0.3323	0.7442	-0.057
Mof_C 	C 	0.4514	0.4514	0.7442	0.135
Mof_C 	C 	0.1385	0.1385	0.7072	0.276
Mof_C 	C 	0.7341	0.4565	-0	-0.09
Mof_C 	C 	0.6677	0.4119	-0	-0.059
Mof_C 	C 	0.5486	0.2928	-0	0.132
Mof_C 	C 	0.8615	0.5687	-0	0.271
Mof_C 	C 	0.5435	0.5435	0.2776	-0.089
Mof_C 	C 	0.5881	0.5881	0.2558	-0.057
Mof_C 	C 	0.7072	0.7072	0.2558	0.134
Mof_C 	C 	0.4313	0.4313	0.2928	0.276
Mof_C 	C 	0.4565	0.7341	-0	-0.09
Mof_C 	C 	0.4119	0.6677	-0	-0.059
Mof_C 	C 	0.2928	0.5486	-0	0.132
Mof_C 	C 	0.5687	0.8615	-0	0.271
Mof_C 	C 	3.47625e-17	0.4565	0.7341	-0.09
Mof_C 	C 	-1.73812e-17	0.4119	0.6677	-0.059
Mof_C 	C 	-3.47625e-17	0.2928	0.5486	0.132
Mof_C 	C 	-3.47625e-17	0.5687	0.8615	0.271
Mof_C 	C 	0.2776	0.5435	0.5435	-0.089
Mof_C 	C 	0.2558	0.5881	0.5881	-0.057
Mof_C 	C 	0.2558	0.7072	0.7072	0.134
Mof_C 	C 	0.2928	0.4313	0.4313	0.276
Mof_C 	C 	9.55967e-17	0.7341	0.4565	-0.09
Mof_C 	C 	-0	0.6677	0.4119	-0.059
Mof_C 	C 	-8.69061e-18	0.5486	0.2928	0.132
Mof_C 	C 	-6.95249e-17	0.8615	0.5687	0.271
Mof_C 	C 	0.7224	0.2659	0.2659	-0.089
Mof_C 	C 	0.7442	0.3323	0.3323	-0.057
Mof_C 	C 	0.7442	0.4514	0.4514	0.135
Mof_C 	C 	0.7072	0.1385	0.1385	0.276
Mof_N 	N 	0.52	0.2588	0.6626	-0.213
Mof_N 	N 	0.4715	0.2784	0.6147	-0.14
Mof_N 	N 	0.5962	0.8574	0.3374	-0.213
Mof_N 	N 	0.6637	0.8568	0.3853	-0.14
Mof_N 	N 	0.4038	0.7412	0.2612	-0.213
Mof_N 	N 	0.3363	0.7216	0.1931	-0.14
Mof_N 	N 	0.48	0.1426	0.7388	-0.213
Mof_N 	N 	0.5285	0.1432	0.8069	-0.14
Mof_N 	N 	0.2612	0.4038	0.7412	-0.213
Mof_N 	N 	0.1931	0.3363	0.7216	-0.14
Mof_N 	N 	0.7388	0.48	0.1426	-0.213
Mof_N 	N 	0.8069	0.5285	0.1432	-0.14
Mof_N 	N 	0.6626	0.52	0.2588	-0.213
Mof_N 	N 	0.6147	0.4715	0.2784	-0.14
Mof_N 	N 	0.3374	0.5962	0.8574	-0.213
Mof_N 	N 	0.3853	0.6637	0.8568	-0.14
Mof_N 	N 	0.8574	0.3374	0.5962	-0.213
Mof_N 	N 	0.8568	0.3853	0.6637	-0.14
Mof_N 	N 	0.2588	0.6626	0.52	-0.213
Mof_N 	N 	0.2784	0.6147	0.4715	-0.14
Mof_N 	N 	0.1426	0.7388	0.48	-0.213
Mof_N 	N 	0.1432	0.8069	0.5285	-0.14
Mof_N 	N 	0.7412	0.2612	0.4038	-0.213
Mof_N 	N 	0.7216	0.1931	0.3363	-0.14
Mof_N 	N 	0.8574	0.5962	0.3374	-0.213
Mof_N 	N 	0.8568	0.6637	0.3853	-0.14
Mof_N 	N 	0.2588	0.52	0.6626	-0.213
Mof_N 	N 	0.2784	0.4715	0.6147	-0.14
Mof_N 	N 	0.1426	0.48	0.7388	-0.213
Mof_N 	N 	0.1432	0.5285	0.8069	-0.14
Mof_N 	N 	0.7412	0.4038	0.2612	-0.213
Mof_N 	N 	0.7216	0.3363	0.1931	-0.14
Mof_N 	N 	0.52	0.6626	0.2588	-0.213
Mof_N 	N 	0.4715	0.6147	0.2784	-0.14
Mof_N 	N 	0.5962	0.3374	0.8574	-0.213
Mof_N 	N 	0.6637	0.3853	0.8568	-0.14
Mof_N 	N 	0.4038	0.2612	0.7412	-0.213
Mof_N 	N 	0.3363	0.1931	0.7216	-0.14
Mof_N 	N 	0.48	0.7388	0.1426	-0.213
Mof_N 	N 	0.5285	0.8069	0.1432	-0.14
Mof_N 	N 	0.2612	0.7412	0.4038	-0.213
Mof_N 	N 	0.1931	0.7216	0.3363	-0.14
Mof_N 	N 	0.7388	0.1426	0.48	-0.213
Mof_N 	N 	0.8069	0.1432	0.5285	-0.14
Mof_N 	N 	0.6626	0.2588	0.52	-0.213
Mof_N 	N 	0.6147	0.2784	0.4715	-0.14
Mof_N 	N 	0.3374	0.8574	0.5962	-0.213
Mof_N 	N 	0.3853	0.8568	0.6637	-0.14
Mof_N 	N 	0.547	0.547	0.547	0.062
Mof_O 	O 	0.5281	0.5281	0.5912	-0.143
Mof_O 	O 	0.5912	0.5281	0.5281	-0.143
Mof_O 	O 	0.5281	0.5912	0.5281	-0.143
Mof_N 	N 	-1.73812e-17	0	0.453	0.06
Mof_O 	O 	0.9369	0.9369	0.4088	-0.14
Mof_O 	O 	-1.73812e-17	0.0631	0.4719	-0.144
Mof_O 	O 	0.0631	0	0.4719	-0.144
Mof_N 	N 	-1.73812e-17	0.453	-0	0.06
Mof_O 	O 	0.0631	0.4719	-0	-0.144
Mof_O 	O 	-2.17265e-18	0.4719	0.0631	-0.144
Mof_O 	O 	0.9369	0.4088	0.9369	-0.14
Mof_N 	N 	0.453	0	-0	0.06
Mof_O 	O 	0.4719	0.0631	-0	-0.144
Mof_O 	O 	0.4088	0.9369	0.9369	-0.14
Mof_O 	O 	0.4719	0	0.0631	-0.144
_end
