data_functionalizedCrystal
_audit_creation_method	'EQeq! by Chris Wilmer'
_symmetry_space_group_name_H-M	'P1'
_symmetry_Int_Tables_number	1
_symmetry_cell_setting	triclinic
loop_
_symmetry_equiv_pos_as_xyz
  x,y,z
_cell_length_a	24.814
_cell_length_b	18.458
_cell_length_c	10.2572
_cell_angle_alpha	90
_cell_angle_beta	90
_cell_angle_gamma	90
loop_
_atom_site_label
_atom_site_type_symbol
_atom_site_fract_x
_atom_site_fract_y
_atom_site_fract_z
_atom_site_charge
Mof_Ga	Ga	0.4375	0.91578	0.11277	3.487
Mof_Ga	Ga	0.33839	0.15286	0.9277	4.061
Mof_Zn	Zn	0.55936	0.93034	0.37861	1.21
Mof_Ga	Ga	0.23536	0.08295	0.60171	4.228
Mof_Ga	Ga	0.34615	0.82721	0.59097	4.047
Mof_Ga	Ga	0.24147	0.89312	0.89762	4.351
Mof_Ga	Ga	0.27631	0.70236	0.91842	4.353
Mof_Ga	Ga	0.23191	0.77191	0.4226	4.282
Mof_P 	P 	0.23253	0.0649	0.896	1.07
Mof_P 	P 	0.43785	0.90392	0.4149	0.821
Mof_P 	P 	0.43573	0.08428	0.0802	0.935
Mof_P 	P 	0.23462	0.9103	0.6054	1.065
Mof_P 	P 	0.36066	0.83174	0.9057	1.054
Mof_P 	P 	0.64541	0.85511	0.5789	0.868
Mof_P 	P 	0.30016	0.6799	0.6223	1.008
Mof_P 	P 	0.29142	0.29451	0.8754	1.028
Mof_F 	F 	0.2467	0.7883	0.8329	-1.435
Mof_F 	F 	0.2374	0.1878	0.6669	-1.4
Mof_F 	F 	0.3071	0.8123	0.4185	-1.321
Mof_O 	O 	0.2917	0.086	0.8681	-1.343
Mof_O 	O 	0.204	0.0641	0.7612	-1.124
Mof_O 	O 	0.232	0.99	0.9583	-1.081
Mof_O 	O 	0.2025	0.1177	0.9839	-1.035
Mof_O 	O 	0.4961	0.905	0.4653	-0.536
Mof_O 	O 	0.4122	0.9795	0.4192	-0.642
Mof_O 	O 	0.4363	0.8731	0.2764	-1.048
Mof_O 	O 	0.4086	0.8541	0.5056	-1.03
Mof_O 	O 	0.404	0.1313	0.9866	-1.135
Mof_O 	O 	0.4285	0.1144	0.2196	-0.606
Mof_O 	O 	0.4133	0.0065	0.0726	-1.14
Mof_O 	O 	0.4944	0.0899	0.0367	-1.014
Mof_O 	O 	0.2066	0.8554	0.5195	-1.003
Mof_O 	O 	0.2949	0.8952	0.6286	-1.296
Mof_O 	O 	0.2281	0.9842	0.5415	-1.016
Mof_O 	O 	0.207	0.9086	0.7415	-1.154
Mof_O 	O 	0.345	0.7539	0.9302	-1.036
Mof_O 	O 	0.4069	0.8487	0.9994	-0.964
Mof_O 	O 	0.3805	0.8441	0.7662	-0.946
Mof_O 	O 	0.3146	0.8859	0.9367	-1.238
Mof_O 	O 	0.6922	0.9092	0.5586	-1.159
Mof_O 	O 	0.6617	0.7766	0.5735	-0.983
Mof_O 	O 	0.6195	0.87	0.7132	-0.586
Mof_O 	O 	0.604	0.8675	0.4724	-0.474
Mof_O 	O 	0.35	0.7279	0.6098	-1.109
Mof_O 	O 	0.25	0.7225	0.5833	-1.148
Mof_O 	O 	0.3083	0.6134	0.5354	-1.068
Mof_O 	O 	0.2944	0.6526	0.7623	-1.025
Mof_O 	O 	0.2834	0.3227	0.7377	-0.985
Mof_O 	O 	0.3422	0.2473	0.8818	-1.162
Mof_O 	O 	0.3005	0.3603	0.9639	-1.099
Mof_O 	O 	0.2435	0.2501	0.9195	-1.177
Mof_O 	O 	0.3003	0.1658	0.0962	-1.356
Mof_Ga	Ga	0.5625	0.08422	0.11277	3.488
Mof_Ga	Ga	0.66161	0.84714	0.9277	4.062
Mof_Zn	Zn	0.44064	0.06966	0.37861	1.211
Mof_Ga	Ga	0.76464	0.91705	0.60171	4.229
Mof_Ga	Ga	0.65385	0.17279	0.59097	4.048
Mof_Ga	Ga	0.75853	0.10688	0.89762	4.352
Mof_Ga	Ga	0.72369	0.29764	0.91842	4.353
Mof_Ga	Ga	0.76809	0.22809	0.4226	4.282
Mof_P 	P 	0.76747	0.9351	0.896	1.07
Mof_P 	P 	0.56215	0.09608	0.4149	0.821
Mof_P 	P 	0.56427	0.91572	0.0802	0.935
Mof_P 	P 	0.76538	0.0897	0.6054	1.065
Mof_P 	P 	0.63934	0.16826	0.9057	1.054
Mof_P 	P 	0.35459	0.14489	0.5789	0.868
Mof_P 	P 	0.69984	0.3201	0.6223	1.008
Mof_P 	P 	0.70858	0.70549	0.8754	1.028
Mof_F 	F 	0.7533	0.2117	0.8329	-1.435
Mof_F 	F 	0.7626	0.8122	0.6669	-1.4
Mof_F 	F 	0.6929	0.1877	0.4185	-1.321
Mof_O 	O 	0.7083	0.914	0.8681	-1.343
Mof_O 	O 	0.796	0.9359	0.7612	-1.124
Mof_O 	O 	0.768	0.01	0.9583	-1.081
Mof_O 	O 	0.7975	0.8823	0.9839	-1.035
Mof_O 	O 	0.5039	0.095	0.4653	-0.536
Mof_O 	O 	0.5878	0.0205	0.4192	-0.642
Mof_O 	O 	0.5637	0.1269	0.2764	-1.048
Mof_O 	O 	0.5914	0.1459	0.5056	-1.03
Mof_O 	O 	0.596	0.8687	0.9866	-1.135
Mof_O 	O 	0.5715	0.8856	0.2196	-0.606
Mof_O 	O 	0.5867	0.9935	0.0726	-1.14
Mof_O 	O 	0.5056	0.9101	0.0367	-1.014
Mof_O 	O 	0.7934	0.1446	0.5195	-1.003
Mof_O 	O 	0.7051	0.1048	0.6286	-1.296
Mof_O 	O 	0.7719	0.0158	0.5415	-1.016
Mof_O 	O 	0.793	0.0914	0.7415	-1.154
Mof_O 	O 	0.655	0.2461	0.9302	-1.036
Mof_O 	O 	0.5931	0.1513	0.9994	-0.964
Mof_O 	O 	0.6195	0.1559	0.7662	-0.946
Mof_O 	O 	0.6854	0.1141	0.9367	-1.238
Mof_O 	O 	0.3078	0.0908	0.5586	-1.159
Mof_O 	O 	0.3383	0.2234	0.5735	-0.983
Mof_O 	O 	0.3805	0.13	0.7132	-0.586
Mof_O 	O 	0.396	0.1325	0.4724	-0.474
Mof_O 	O 	0.65	0.2721	0.6098	-1.109
Mof_O 	O 	0.75	0.2775	0.5833	-1.148
Mof_O 	O 	0.6917	0.3866	0.5354	-1.068
Mof_O 	O 	0.7056	0.3474	0.7623	-1.025
Mof_O 	O 	0.7166	0.6773	0.7377	-0.985
Mof_O 	O 	0.6578	0.7527	0.8818	-1.162
Mof_O 	O 	0.6995	0.6397	0.9639	-1.099
Mof_O 	O 	0.7565	0.7499	0.9195	-1.177
Mof_O 	O 	0.6997	0.8342	0.0962	-1.356
Mof_Ga	Ga	0.0625	0.41578	0.88723	3.486
Mof_Ga	Ga	0.16161	0.65286	0.0723	4.062
Mof_Zn	Zn	0.94064	0.43034	0.62139	1.212
Mof_Ga	Ga	0.26464	0.58295	0.39829	4.232
Mof_Ga	Ga	0.15385	0.32721	0.40903	4.048
Mof_Ga	Ga	0.25853	0.39312	0.10238	4.352
Mof_Ga	Ga	0.22369	0.20236	0.08158	4.352
Mof_Ga	Ga	0.26809	0.27191	0.5774	4.282
Mof_P 	P 	0.26747	0.5649	0.104	1.071
Mof_P 	P 	0.06215	0.40392	0.5851	0.821
Mof_P 	P 	0.06427	0.58428	0.9198	0.935
Mof_P 	P 	0.26538	0.4103	0.3946	1.066
Mof_P 	P 	0.13934	0.33174	0.0943	1.054
Mof_P 	P 	0.85459	0.35511	0.4211	0.868
Mof_P 	P 	0.19984	0.1799	0.3777	1.008
Mof_P 	P 	0.20858	0.79451	0.1246	1.028
Mof_F 	F 	0.2533	0.2883	0.1671	-1.435
Mof_F 	F 	0.2626	0.6878	0.3331	-1.4
Mof_F 	F 	0.1929	0.3123	0.5815	-1.321
Mof_O 	O 	0.2083	0.586	0.1319	-1.343
Mof_O 	O 	0.296	0.5641	0.2388	-1.123
Mof_O 	O 	0.268	0.49	0.0417	-1.081
Mof_O 	O 	0.2975	0.6177	0.0161	-1.035
Mof_O 	O 	0.0039	0.405	0.5347	-0.536
Mof_O 	O 	0.0878	0.4795	0.5808	-0.642
Mof_O 	O 	0.0637	0.3731	0.7236	-1.048
Mof_O 	O 	0.0914	0.3541	0.4944	-1.031
Mof_O 	O 	0.096	0.6313	0.0134	-1.135
Mof_O 	O 	0.0715	0.6144	0.7804	-0.605
Mof_O 	O 	0.0867	0.5065	0.9274	-1.139
Mof_O 	O 	0.0056	0.5899	0.9633	-1.014
Mof_O 	O 	0.2934	0.3554	0.4805	-1.003
Mof_O 	O 	0.2051	0.3952	0.3714	-1.296
Mof_O 	O 	0.2719	0.4842	0.4585	-1.017
Mof_O 	O 	0.293	0.4086	0.2585	-1.154
Mof_O 	O 	0.155	0.2539	0.0698	-1.036
Mof_O 	O 	0.0931	0.3487	0.0006	-0.965
Mof_O 	O 	0.1195	0.3441	0.2338	-0.946
Mof_O 	O 	0.1854	0.3859	0.0633	-1.238
Mof_O 	O 	0.8078	0.4092	0.4414	-1.159
Mof_O 	O 	0.8383	0.2766	0.4265	-0.983
Mof_O 	O 	0.8805	0.37	0.2868	-0.586
Mof_O 	O 	0.896	0.3675	0.5276	-0.474
Mof_O 	O 	0.15	0.2279	0.3902	-1.11
Mof_O 	O 	0.25	0.2225	0.4167	-1.148
Mof_O 	O 	0.1917	0.1134	0.4646	-1.068
Mof_O 	O 	0.2056	0.1526	0.2377	-1.025
Mof_O 	O 	0.2166	0.8227	0.2623	-0.985
Mof_O 	O 	0.1578	0.7473	0.1182	-1.162
Mof_O 	O 	0.1995	0.8603	0.0361	-1.099
Mof_O 	O 	0.2565	0.7501	0.0805	-1.177
Mof_O 	O 	0.1997	0.6658	0.9038	-1.355
Mof_Ga	Ga	0.9375	0.58422	0.88723	3.486
Mof_Ga	Ga	0.83839	0.34714	0.0723	4.062
Mof_Zn	Zn	0.05936	0.56966	0.62139	1.212
Mof_Ga	Ga	0.73536	0.41705	0.39829	4.232
Mof_Ga	Ga	0.84615	0.67279	0.40903	4.048
Mof_Ga	Ga	0.74147	0.60688	0.10238	4.352
Mof_Ga	Ga	0.77631	0.79764	0.08158	4.352
Mof_Ga	Ga	0.73191	0.72809	0.5774	4.282
Mof_P 	P 	0.73253	0.4351	0.104	1.071
Mof_P 	P 	0.93785	0.59608	0.5851	0.821
Mof_P 	P 	0.93573	0.41572	0.9198	0.935
Mof_P 	P 	0.73462	0.5897	0.3946	1.066
Mof_P 	P 	0.86066	0.66826	0.0943	1.054
Mof_P 	P 	0.14541	0.64489	0.4211	0.868
Mof_P 	P 	0.80016	0.8201	0.3777	1.008
Mof_P 	P 	0.79142	0.20549	0.1246	1.028
Mof_F 	F 	0.7467	0.7117	0.1671	-1.435
Mof_F 	F 	0.7374	0.3122	0.3331	-1.4
Mof_F 	F 	0.8071	0.6877	0.5815	-1.321
Mof_O 	O 	0.7917	0.414	0.1319	-1.343
Mof_O 	O 	0.704	0.4359	0.2388	-1.123
Mof_O 	O 	0.732	0.51	0.0417	-1.081
Mof_O 	O 	0.7025	0.3823	0.0161	-1.035
Mof_O 	O 	0.9961	0.595	0.5347	-0.536
Mof_O 	O 	0.9122	0.5205	0.5808	-0.642
Mof_O 	O 	0.9363	0.6269	0.7236	-1.048
Mof_O 	O 	0.9086	0.6459	0.4944	-1.031
Mof_O 	O 	0.904	0.3687	0.0134	-1.135
Mof_O 	O 	0.9285	0.3856	0.7804	-0.605
Mof_O 	O 	0.9133	0.4935	0.9274	-1.139
Mof_O 	O 	0.9944	0.4101	0.9633	-1.014
Mof_O 	O 	0.7066	0.6446	0.4805	-1.003
Mof_O 	O 	0.7949	0.6048	0.3714	-1.296
Mof_O 	O 	0.7281	0.5158	0.4585	-1.017
Mof_O 	O 	0.707	0.5914	0.2585	-1.154
Mof_O 	O 	0.845	0.7461	0.0698	-1.036
Mof_O 	O 	0.9069	0.6513	0.0006	-0.965
Mof_O 	O 	0.8805	0.6559	0.2338	-0.946
Mof_O 	O 	0.8146	0.6141	0.0633	-1.238
Mof_O 	O 	0.1922	0.5908	0.4414	-1.159
Mof_O 	O 	0.1617	0.7234	0.4265	-0.983
Mof_O 	O 	0.1195	0.63	0.2868	-0.586
Mof_O 	O 	0.104	0.6325	0.5276	-0.474
Mof_O 	O 	0.85	0.7721	0.3902	-1.11
Mof_O 	O 	0.75	0.7775	0.4167	-1.148
Mof_O 	O 	0.8083	0.8866	0.4646	-1.068
Mof_O 	O 	0.7944	0.8474	0.2377	-1.025
Mof_O 	O 	0.7834	0.1773	0.2623	-0.985
Mof_O 	O 	0.8422	0.2527	0.1182	-1.162
Mof_O 	O 	0.8005	0.1397	0.0361	-1.099
Mof_O 	O 	0.7435	0.2499	0.0805	-1.177
Mof_O 	O 	0.8003	0.3342	0.9038	-1.355
_end
