data_functionalizedCrystal
_audit_creation_method	'EQeq! by Chris Wilmer'
_symmetry_space_group_name_H-M	'P1'
_symmetry_Int_Tables_number	1
_symmetry_cell_setting	triclinic
loop_
_symmetry_equiv_pos_as_xyz
  x,y,z
_cell_length_a	8.1923
_cell_length_b	14.0159
_cell_length_c	23.3025
_cell_angle_alpha	98.562
_cell_angle_beta	90
_cell_angle_gamma	106.993
loop_
_atom_site_label
_atom_site_type_symbol
_atom_site_fract_x
_atom_site_fract_y
_atom_site_fract_z
_atom_site_charge
Mof_Zn	Zn	0.66207	0.08088	0.5016	1.213
Mof_Zn	Zn	0.58119	0.91912	0.9984	1.212
Mof_Zn	Zn	0.41881	0.08088	0.0016	1.213
Mof_Zn	Zn	0.33793	0.91912	0.4984	1.214
Mof_H 	H 	0.4468	0.2842	0.9692	0.014
Mof_H 	H 	0.0676	0.1262	0.7445	0.128
Mof_H 	H 	0.699	0.5986	0.0235	0.058
Mof_H 	H 	0.2315	0.6812	0.9482	0.206
Mof_H 	H 	0.2599	0.23	0.5776	0.062
Mof_H 	H 	0.7888	0.2796	0.8964	-0.012
Mof_H 	H 	0.5503	0.3188	0.5518	0.206
Mof_H 	H 	0.0586	0.1262	0.2445	0.128
Mof_H 	H 	0.0981	0.8524	0.6405	0.145
Mof_H 	H 	0.301	0.4014	0.9765	0.058
Mof_H 	H 	0.8641	0.9546	0.3412	-0.008
Mof_H 	H 	0.4979	0.3846	0.6069	0.198
Mof_H 	H 	0.1133	0.6154	0.8931	0.199
Mof_H 	H 	0.2457	0.1476	0.8595	0.147
Mof_H 	H 	0.5021	0.6154	0.3931	0.198
Mof_H 	H 	0.9709	0.9306	0.0856	-0.006
Mof_H 	H 	0.9597	0.9306	0.5856	-0.007
Mof_H 	H 	0.1626	0.7158	0.5308	0.014
Mof_H 	H 	0.7401	0.77	0.4224	0.062
Mof_H 	H 	0.9019	0.1476	0.3595	0.145
Mof_H 	H 	0.6531	0.6472	0.6625	0.141
Mof_H 	H 	0.4001	0.7494	0.3324	-0.007
Mof_H 	H 	0.0403	0.0694	0.4144	-0.007
Mof_H 	H 	0.0059	0.3528	0.8375	0.141
Mof_H 	H 	0.9324	0.8738	0.2555	0.128
Mof_H 	H 	0.5356	0.335	0.7529	0.128
Mof_H 	H 	0.8996	0.5986	0.5235	0.058
Mof_H 	H 	0.9095	0.0454	0.1588	-0.01
Mof_H 	H 	0.1289	0.1214	0.0687	0.01
Mof_H 	H 	0.1968	0.5614	0.9359	0.211
Mof_H 	H 	0.9925	0.1214	0.5687	0.011
Mof_H 	H 	0.5092	0.7204	0.6036	-0.011
Mof_H 	H 	0.2006	0.665	0.7471	0.128
Mof_H 	H 	0.3493	0.7494	0.8324	-0.007
Mof_H 	H 	0.3469	0.3528	0.3375	0.141
Mof_H 	H 	0.8867	0.3846	0.1069	0.199
Mof_H 	H 	0.8711	0.8786	0.9313	0.01
Mof_H 	H 	0.2112	0.7204	0.1036	-0.012
Mof_H 	H 	0.5532	0.7158	0.0308	0.014
Mof_H 	H 	0.4497	0.6812	0.4482	0.206
Mof_H 	H 	0.1004	0.4014	0.4765	0.058
Mof_H 	H 	0.7685	0.3188	0.0518	0.206
Mof_H 	H 	0.6354	0.4386	0.5641	0.211
Mof_H 	H 	0.4644	0.665	0.2471	0.128
Mof_H 	H 	0.0075	0.8786	0.4313	0.011
Mof_H 	H 	0.8032	0.4386	0.0641	0.211
Mof_H 	H 	0.7543	0.8524	0.1405	0.147
Mof_H 	H 	0.0299	0.77	0.9224	0.061
Mof_H 	H 	0.3646	0.5614	0.4359	0.211
Mof_H 	H 	0.4908	0.2796	0.3964	-0.011
Mof_H 	H 	0.0291	0.0694	0.9144	-0.006
Mof_H 	H 	0.9701	0.23	0.0776	0.061
Mof_H 	H 	0.1359	0.0454	0.6588	-0.008
Mof_H 	H 	0.6507	0.2506	0.1676	-0.007
Mof_H 	H 	0.5999	0.2506	0.6676	-0.007
Mof_H 	H 	0.7994	0.335	0.2529	0.128
Mof_H 	H 	0.8374	0.2842	0.4692	0.014
Mof_H 	H 	0.9941	0.6472	0.1625	0.141
Mof_H 	H 	0.0905	0.9546	0.8412	-0.01
Mof_H 	H 	0.9414	0.8738	0.7555	0.128
Mof_C 	C 	0.1469	0.6164	0.9336	-0.585
Mof_C 	C 	0.0234	0.8478	0.7714	-0.274
Mof_C 	C 	0.3714	0.2506	0.3883	0.175
Mof_C 	C 	0.454	0.276	0.7335	-0.259
Mof_C 	C 	0.7382	0.6562	0.0046	-0.065
Mof_C 	C 	0.918	0.6562	0.5046	-0.067
Mof_C 	C 	0.8803	0.748	0.6597	0.318
Mof_C 	C 	0.1487	0.1712	0.8656	-0.3
Mof_C 	C 	0.3737	0.1356	0.6539	-0.198
Mof_C 	C 	0.6081	0.6034	0.4693	0.203
Mof_C 	C 	0.337	0.921	0.9017	0.395
Mof_C 	C 	0.1043	0.1276	0.3991	0.171
Mof_C 	C 	0.8809	0.166	0.9123	-0.213
Mof_C 	C 	0.4695	0.6164	0.4336	-0.584
Mof_C 	C 	0.2851	0.166	0.4123	-0.214
Mof_C 	C 	0.5305	0.3836	0.5664	-0.584
Mof_C 	C 	0.0735	0.726	0.5086	0.037
Mof_C 	C 	0.9767	0.8724	0.1009	0.172
Mof_C 	C 	0.2864	0.2938	0.3528	-0.302
Mof_C 	C 	0.416	0.079	0.5983	0.402
Mof_C 	C 	0.7062	0.76	0.2438	0.281
Mof_C 	C 	0.546	0.724	0.2665	-0.259
Mof_C 	C 	0.9841	0.8216	0.451	0.065
Mof_C 	C 	0.2664	0.7748	0.8166	0.139
Mof_C 	C 	0.1208	0.7494	0.1117	0.177
Mof_C 	C 	0.2185	0.1042	0.6782	0.157
Mof_C 	C 	0.0233	0.1276	0.8991	0.172
Mof_C 	C 	0.9926	0.7062	0.1472	-0.304
Mof_C 	C 	0.584	0.921	0.4017	0.402
Mof_C 	C 	0.2381	0.8644	0.8461	-0.197
Mof_C 	C 	0.6263	0.8644	0.3461	-0.198
Mof_C 	C 	0.2172	0.3298	0.5281	-0.019
Mof_C 	C 	0.663	0.079	0.0983	0.395
Mof_C 	C 	0.822	0.276	0.2335	-0.259
Mof_C 	C 	0.2938	0.24	0.7562	0.281
Mof_C 	C 	0.5084	0.7748	0.3166	0.14
Mof_C 	C 	0.9775	0.8288	0.6344	-0.298
Mof_C 	C 	0.1625	0.1784	0.049	0.064
Mof_C 	C 	0.0225	0.1712	0.3656	-0.298
Mof_C 	C 	0.8531	0.3836	0.0664	-0.585
Mof_C 	C 	0.3919	0.3966	0.5307	0.203
Mof_C 	C 	0.0047	0.3966	0.0307	0.204
Mof_C 	C 	0.1323	0.252	0.8403	0.319
Mof_C 	C 	0.8677	0.748	0.1597	0.319
Mof_C 	C 	0.2618	0.3438	0.9954	-0.065
Mof_C 	C 	0.6286	0.7494	0.6117	0.175
Mof_C 	C 	0.8792	0.2506	0.8883	0.177
Mof_C 	C 	0.082	0.3438	0.4954	-0.067
Mof_C 	C 	0.1191	0.834	0.0877	-0.213
Mof_C 	C 	0.6329	0.8892	0.5527	0.431
Mof_C 	C 	0.6525	0.726	0.0086	0.04
Mof_C 	C 	0.9462	0.24	0.2562	0.28
Mof_C 	C 	0.3671	0.1108	0.4473	0.431
Mof_C 	C 	0.2563	0.8892	0.0527	0.431
Mof_C 	C 	0.9766	0.1522	0.2286	-0.274
Mof_C 	C 	0.1143	0.8958	0.8218	0.157
Mof_C 	C 	0.8513	0.8288	0.1344	-0.3
Mof_C 	C 	0.175	0.2432	0.5549	-0.085
Mof_C 	C 	0.1126	0.3298	0.0281	-0.021
Mof_C 	C 	0.9318	0.7568	0.9451	-0.084
Mof_C 	C 	0.0682	0.2432	0.0549	-0.084
Mof_C 	C 	0.7828	0.6702	0.4719	-0.019
Mof_C 	C 	0.8244	0.8478	0.2714	-0.273
Mof_C 	C 	0.0538	0.76	0.7438	0.28
Mof_C 	C 	0.8857	0.1042	0.1782	0.157
Mof_C 	C 	0.7136	0.7062	0.6472	-0.302
Mof_C 	C 	0.1756	0.1522	0.7286	-0.273
Mof_C 	C 	0.8957	0.8724	0.6009	0.171
Mof_C 	C 	0.825	0.7568	0.4451	-0.085
Mof_C 	C 	0.4916	0.2252	0.6834	0.14
Mof_C 	C 	0.3475	0.274	0.9914	0.04
Mof_C 	C 	0.8375	0.8216	0.951	0.064
Mof_C 	C 	0.7815	0.8958	0.3218	0.157
Mof_C 	C 	0.9953	0.6034	0.9693	0.204
Mof_C 	C 	0.0159	0.1784	0.549	0.065
Mof_C 	C 	0.8874	0.6702	0.9719	-0.021
Mof_C 	C 	0.7619	0.1356	0.1539	-0.197
Mof_C 	C 	0.7336	0.2252	0.1834	0.139
Mof_C 	C 	0.1197	0.252	0.3403	0.318
Mof_C 	C 	0.7437	0.1108	0.9473	0.431
Mof_C 	C 	0.7149	0.834	0.5877	-0.214
Mof_C 	C 	0.0074	0.2938	0.8528	-0.304
Mof_C 	C 	0.9265	0.274	0.4914	0.037
Mof_C 	C 	0.178	0.724	0.7665	-0.259
Mof_N 	N 	0.0523	0.4692	0.9999	-0.125
Mof_N 	N 	0.7015	0.8106	0.9823	-0.243
Mof_N 	N 	0.8909	0.1894	0.5177	-0.241
Mof_N 	N 	0.2985	0.1894	0.0177	-0.243
Mof_N 	N 	0.1091	0.8106	0.4823	-0.241
Mof_N 	N 	0.5831	0.5308	0.5001	-0.125
Mof_N 	N 	0.4169	0.4692	0.4999	-0.125
Mof_N 	N 	0.9477	0.5308	0.0001	-0.125
Mof_O 	O 	0.7467	0.0288	0.9595	-0.484
Mof_O 	O 	0.0375	0.299	0.3063	-0.311
Mof_O 	O 	0.6914	0.0024	0.424	-0.466
Mof_O 	O 	0.9625	0.701	0.6937	-0.311
Mof_O 	O 	0.2821	0.0288	0.4595	-0.486
Mof_O 	O 	0.7385	0.701	0.1937	-0.312
Mof_O 	O 	0.3086	0.9976	0.576	-0.466
Mof_O 	O 	0.2533	0.9712	0.0405	-0.484
Mof_O 	O 	0.311	0.0024	0.924	-0.461
Mof_O 	O 	0.6259	0.1526	0.9588	-0.462
Mof_O 	O 	0.5267	0.1526	0.4588	-0.464
Mof_O 	O 	0.4441	0.8768	0.4233	-0.47
Mof_O 	O 	0.3741	0.8474	0.0412	-0.462
Mof_O 	O 	0.7179	0.9712	0.5405	-0.486
Mof_O 	O 	0.4327	0.8768	0.9233	-0.47
Mof_O 	O 	0.4733	0.8474	0.5412	-0.464
Mof_O 	O 	0.5673	0.1232	0.0767	-0.47
Mof_O 	O 	0.689	0.9976	0.076	-0.461
Mof_O 	O 	0.2615	0.299	0.8063	-0.312
Mof_O 	O 	0.5559	0.1232	0.5767	-0.47
_end
