data_functionalizedCrystal
_audit_creation_method	'EQeq! by Chris Wilmer'
_symmetry_space_group_name_H-M	'P1'
_symmetry_Int_Tables_number	1
_symmetry_cell_setting	triclinic
loop_
_symmetry_equiv_pos_as_xyz
  x,y,z
_cell_length_a	10.9709
_cell_length_b	10.9709
_cell_length_c	35.314
_cell_angle_alpha	90
_cell_angle_beta	90
_cell_angle_gamma	120
loop_
_atom_site_label
_atom_site_type_symbol
_atom_site_fract_x
_atom_site_fract_y
_atom_site_fract_z
_atom_site_charge
Mof_N 	N 	0.9562	0.6852	0.07354	-0.078
Mof_N 	N 	0.9317	0.8193	0.0339	-0.146
Mof_N 	N 	0.8221	0.7708	0.0594	-0.093
Mof_C 	C 	0.0101	0.767	0.04264	0.051
Mof_H 	H 	0.0907	0.7831	0.0297	0.028
Mof_C 	C 	0.8413	0.6921	0.08277	0.103
Mof_H 	H 	0.7833	0.6461	0.1033	0.021
Mof_N 	N 	0.62287	0.01853	0.40687	-0.109
Mof_N 	N 	0.59837	0.15263	0.36723	-0.177
Mof_N 	N 	0.48877	0.10413	0.39273	-0.092
Mof_C 	C 	0.67677	0.10033	0.37597	0.103
Mof_H 	H 	0.75737	0.11643	0.36303	0.009
Mof_C 	C 	0.50797	0.02543	0.4161	0.046
Mof_H 	H 	0.44997	0.97943	0.43663	0.055
Mof_N 	N 	0.28953	0.35187	0.74021	-0.108
Mof_N 	N 	0.26503	0.48597	0.70057	-0.177
Mof_N 	N 	0.15543	0.43747	0.72607	-0.102
Mof_C 	C 	0.34343	0.43367	0.70931	0.102
Mof_H 	H 	0.42403	0.44977	0.69637	0.01
Mof_C 	C 	0.17463	0.35877	0.74944	0.095
Mof_H 	H 	0.11663	0.31277	0.76997	0.009
Mof_N 	N 	0.3148	0.271	0.07354	-0.107
Mof_N 	N 	0.1807	0.1124	0.0339	-0.184
Mof_N 	N 	0.2292	0.0513	0.0594	-0.107
Mof_C 	C 	0.233	0.2431	0.04264	0.1
Mof_H 	H 	0.2169	0.3076	0.0297	0.004
Mof_C 	C 	0.3079	0.1492	0.08277	0.096
Mof_H 	H 	0.3539	0.1372	0.1033	0.012
Mof_N 	N 	0.98147	0.60433	0.40687	-0.102
Mof_N 	N 	0.84737	0.44573	0.36723	-0.175
Mof_N 	N 	0.89587	0.38463	0.39273	-0.102
Mof_C 	C 	0.89967	0.57643	0.37597	0.106
Mof_H 	H 	0.88357	0.64093	0.36303	0.016
Mof_C 	C 	0.97457	0.48253	0.4161	0.152
Mof_H 	H 	0.02057	0.47053	0.43663	-0.018
Mof_N 	N 	0.64813	0.93767	0.74021	-0.094
Mof_N 	N 	0.51403	0.77907	0.70057	-0.175
Mof_N 	N 	0.56253	0.71797	0.72607	-0.096
Mof_C 	C 	0.56633	0.90977	0.70931	0.107
Mof_H 	H 	0.55023	0.97427	0.69637	0.017
Mof_C 	C 	0.64123	0.81587	0.74944	0.101
Mof_H 	H 	0.68723	0.80387	0.76997	0.024
Mof_N 	N 	0.729	0.0438	0.07354	-0.132
Mof_N 	N 	0.8876	0.0683	0.0339	-0.193
Mof_N 	N 	0.9487	0.1779	0.0594	-0.09
Mof_C 	C 	0.7569	0.9899	0.04264	0.16
Mof_H 	H 	0.6924	0.9093	0.0297	-0.007
Mof_C 	C 	0.8508	0.1587	0.08277	0.096
Mof_H 	H 	0.8628	0.2167	0.1033	0.022
Mof_N 	N 	0.39567	0.37713	0.40687	-0.107
Mof_N 	N 	0.55427	0.40163	0.36723	-0.177
Mof_N 	N 	0.61537	0.51123	0.39273	-0.096
Mof_C 	C 	0.42357	0.32323	0.37597	0.104
Mof_H 	H 	0.35907	0.24263	0.36303	0.004
Mof_C 	C 	0.51747	0.49203	0.4161	0.099
Mof_H 	H 	0.52947	0.55003	0.43663	0.019
Mof_N 	N 	0.06233	0.71047	0.74021	-0.117
Mof_N 	N 	0.22093	0.73497	0.70057	-0.177
Mof_N 	N 	0.28203	0.84457	0.72607	-0.093
Mof_C 	C 	0.09023	0.65657	0.70931	0.103
Mof_H 	H 	0.02573	0.57597	0.69637	0.002
Mof_C 	C 	0.18413	0.82537	0.74944	0.099
Mof_H 	H 	0.19613	0.88337	0.76997	0.022
Mof_N 	N 	0.6852	0.9562	0.42646	-0.079
Mof_N 	N 	0.8193	0.9317	0.4661	-0.146
Mof_N 	N 	0.7708	0.8221	0.4406	-0.093
Mof_C 	C 	0.767	0.0101	0.45736	0.051
Mof_H 	H 	0.7831	0.0907	0.4703	0.03
Mof_C 	C 	0.6921	0.8413	0.41723	0.104
Mof_H 	H 	0.6461	0.7833	0.3967	0.021
Mof_N 	N 	0.35187	0.28953	0.75979	-0.108
Mof_N 	N 	0.48597	0.26503	0.79943	-0.177
Mof_N 	N 	0.43747	0.15543	0.77393	-0.102
Mof_C 	C 	0.43367	0.34343	0.79069	0.102
Mof_H 	H 	0.44977	0.42403	0.80363	0.01
Mof_C 	C 	0.35877	0.17463	0.75056	0.095
Mof_H 	H 	0.31277	0.11663	0.73003	0.009
Mof_N 	N 	0.01853	0.62287	0.09313	-0.109
Mof_N 	N 	0.15263	0.59837	0.13277	-0.177
Mof_N 	N 	0.10413	0.48877	0.10727	-0.092
Mof_C 	C 	0.10033	0.67677	0.12403	0.103
Mof_H 	H 	0.11643	0.75737	0.13697	0.009
Mof_C 	C 	0.02543	0.50797	0.0839	0.045
Mof_H 	H 	0.97943	0.44997	0.06337	0.054
Mof_N 	N 	0.271	0.3148	0.42646	-0.107
Mof_N 	N 	0.1124	0.1807	0.4661	-0.183
Mof_N 	N 	0.0513	0.2292	0.4406	-0.106
Mof_C 	C 	0.2431	0.233	0.45736	0.101
Mof_H 	H 	0.3076	0.2169	0.4703	0.006
Mof_C 	C 	0.1492	0.3079	0.41723	0.096
Mof_H 	H 	0.1372	0.3539	0.3967	0.012
Mof_N 	N 	0.93767	0.64813	0.75979	-0.094
Mof_N 	N 	0.77907	0.51403	0.79943	-0.175
Mof_N 	N 	0.71797	0.56253	0.77393	-0.096
Mof_C 	C 	0.90977	0.56633	0.79069	0.107
Mof_H 	H 	0.97427	0.55023	0.80363	0.017
Mof_C 	C 	0.81587	0.64123	0.75056	0.101
Mof_H 	H 	0.80387	0.68723	0.73003	0.024
Mof_N 	N 	0.60433	0.98147	0.09313	-0.103
Mof_N 	N 	0.44573	0.84737	0.13277	-0.175
Mof_N 	N 	0.38463	0.89587	0.10727	-0.102
Mof_C 	C 	0.57643	0.89967	0.12403	0.106
Mof_H 	H 	0.64093	0.88357	0.13697	0.016
Mof_C 	C 	0.48253	0.97457	0.0839	0.151
Mof_H 	H 	0.47053	0.02057	0.06337	-0.019
Mof_N 	N 	0.0438	0.729	0.42646	-0.132
Mof_N 	N 	0.0683	0.8876	0.4661	-0.192
Mof_N 	N 	0.1779	0.9487	0.4406	-0.089
Mof_C 	C 	0.9899	0.7569	0.45736	0.161
Mof_H 	H 	0.9093	0.6924	0.4703	-0.005
Mof_C 	C 	0.1587	0.8508	0.41723	0.096
Mof_H 	H 	0.2167	0.8628	0.3967	0.022
Mof_N 	N 	0.71047	0.06233	0.75979	-0.117
Mof_N 	N 	0.73497	0.22093	0.79943	-0.177
Mof_N 	N 	0.84457	0.28203	0.77393	-0.093
Mof_C 	C 	0.65657	0.09023	0.79069	0.103
Mof_H 	H 	0.57597	0.02573	0.80363	0.002
Mof_C 	C 	0.82537	0.18413	0.75056	0.099
Mof_H 	H 	0.88337	0.19613	0.73003	0.022
Mof_N 	N 	0.37713	0.39567	0.09313	-0.107
Mof_N 	N 	0.40163	0.55427	0.13277	-0.177
Mof_N 	N 	0.51123	0.61537	0.10727	-0.096
Mof_C 	C 	0.32323	0.42357	0.12403	0.104
Mof_H 	H 	0.24263	0.35907	0.13697	0.004
Mof_C 	C 	0.49203	0.51747	0.0839	0.098
Mof_H 	H 	0.55003	0.52947	0.06337	0.018
Mof_N 	N 	0.0438	0.3148	0.92646	-0.135
Mof_N 	N 	0.0683	0.1807	0.9661	-0.201
Mof_N 	N 	0.1779	0.2292	0.9406	-0.099
Mof_C 	C 	0.9899	0.233	0.95736	0.164
Mof_H 	H 	0.9093	0.2169	0.9703	-0.009
Mof_C 	C 	0.1587	0.3079	0.91723	0.094
Mof_H 	H 	0.2167	0.3539	0.8967	0.016
Mof_N 	N 	0.71047	0.64813	0.25979	-0.105
Mof_N 	N 	0.73497	0.51403	0.29943	-0.176
Mof_N 	N 	0.84457	0.56253	0.27393	-0.092
Mof_C 	C 	0.65657	0.56633	0.29069	0.106
Mof_H 	H 	0.57597	0.55023	0.30363	0.009
Mof_C 	C 	0.82537	0.64123	0.25056	0.102
Mof_H 	H 	0.88337	0.68723	0.23003	0.027
Mof_N 	N 	0.37713	0.98147	0.59313	-0.102
Mof_N 	N 	0.40163	0.84737	0.63277	-0.176
Mof_N 	N 	0.51123	0.89587	0.60727	-0.101
Mof_C 	C 	0.32323	0.89967	0.62403	0.106
Mof_H 	H 	0.24263	0.88357	0.63697	0.011
Mof_C 	C 	0.49203	0.97457	0.5839	0.151
Mof_H 	H 	0.55003	0.02057	0.56337	-0.017
Mof_N 	N 	0.6852	0.729	0.92646	-0.105
Mof_N 	N 	0.8193	0.8876	0.9661	-0.163
Mof_N 	N 	0.7708	0.9487	0.9406	-0.087
Mof_C 	C 	0.767	0.7569	0.95736	0.108
Mof_H 	H 	0.7831	0.6924	0.9703	0.016
Mof_C 	C 	0.6921	0.8508	0.91723	0.101
Mof_H 	H 	0.6461	0.8628	0.8967	0.025
Mof_N 	N 	0.35187	0.06233	0.25979	-0.119
Mof_N 	N 	0.48597	0.22093	0.29943	-0.177
Mof_N 	N 	0.43747	0.28203	0.27393	-0.098
Mof_C 	C 	0.43367	0.09023	0.29069	0.101
Mof_H 	H 	0.44977	0.02573	0.30363	0.002
Mof_C 	C 	0.35877	0.18413	0.25056	0.096
Mof_H 	H 	0.31277	0.19613	0.23003	0.012
Mof_N 	N 	0.01853	0.39567	0.59313	-0.111
Mof_N 	N 	0.15263	0.55427	0.63277	-0.178
Mof_N 	N 	0.10413	0.61537	0.60727	-0.091
Mof_C 	C 	0.10033	0.42357	0.62403	0.103
Mof_H 	H 	0.11643	0.35907	0.63697	0.003
Mof_C 	C 	0.02543	0.51747	0.5839	0.047
Mof_H 	H 	0.97943	0.52947	0.56337	0.055
Mof_N 	N 	0.271	0.9562	0.92646	-0.078
Mof_N 	N 	0.1124	0.9317	0.9661	-0.15
Mof_N 	N 	0.0513	0.8221	0.9406	-0.102
Mof_C 	C 	0.2431	0.0101	0.95736	0.042
Mof_H 	H 	0.3076	0.0907	0.9703	0.029
Mof_C 	C 	0.1492	0.8413	0.91723	0.102
Mof_H 	H 	0.1372	0.7833	0.8967	0.015
Mof_N 	N 	0.93767	0.28953	0.25979	-0.095
Mof_N 	N 	0.77907	0.26503	0.29943	-0.176
Mof_N 	N 	0.71797	0.15543	0.27393	-0.1
Mof_C 	C 	0.90977	0.34343	0.29069	0.105
Mof_H 	H 	0.97427	0.42403	0.30363	0.018
Mof_C 	C 	0.81587	0.17463	0.25056	0.098
Mof_H 	H 	0.80387	0.11663	0.23003	0.016
Mof_N 	N 	0.60433	0.62287	0.59313	-0.105
Mof_N 	N 	0.44573	0.59837	0.63277	-0.176
Mof_N 	N 	0.38463	0.48877	0.60727	-0.097
Mof_C 	C 	0.57643	0.67677	0.62403	0.105
Mof_H 	H 	0.64093	0.75737	0.63697	0.015
Mof_C 	C 	0.48253	0.50797	0.5839	0.099
Mof_H 	H 	0.47053	0.44997	0.56337	0.018
Mof_N 	N 	0.3148	0.0438	0.57354	-0.135
Mof_N 	N 	0.1807	0.0683	0.5339	-0.203
Mof_N 	N 	0.2292	0.1779	0.5594	-0.099
Mof_C 	C 	0.233	0.9899	0.54264	0.164
Mof_H 	H 	0.2169	0.9093	0.5297	-0.011
Mof_C 	C 	0.3079	0.1587	0.58277	0.093
Mof_H 	H 	0.3539	0.2167	0.6033	0.016
Mof_N 	N 	0.98147	0.37713	0.90687	-0.102
Mof_N 	N 	0.84737	0.40163	0.86723	-0.175
Mof_N 	N 	0.89587	0.51123	0.89273	-0.101
Mof_C 	C 	0.89967	0.32323	0.87597	0.106
Mof_H 	H 	0.88357	0.24263	0.86303	0.011
Mof_C 	C 	0.97457	0.49203	0.9161	0.15
Mof_H 	H 	0.02057	0.55003	0.93663	-0.016
Mof_N 	N 	0.64813	0.71047	0.24021	-0.105
Mof_N 	N 	0.51403	0.73497	0.20057	-0.176
Mof_N 	N 	0.56253	0.84457	0.22607	-0.092
Mof_C 	C 	0.56633	0.65657	0.20931	0.106
Mof_H 	H 	0.55023	0.57597	0.19637	0.009
Mof_C 	C 	0.64123	0.82537	0.24944	0.102
Mof_H 	H 	0.68723	0.88337	0.26997	0.027
Mof_N 	N 	0.729	0.6852	0.57354	-0.105
Mof_N 	N 	0.8876	0.8193	0.5339	-0.165
Mof_N 	N 	0.9487	0.7708	0.5594	-0.087
Mof_C 	C 	0.7569	0.767	0.54264	0.107
Mof_H 	H 	0.6924	0.7831	0.5297	0.014
Mof_C 	C 	0.8508	0.6921	0.58277	0.101
Mof_H 	H 	0.8628	0.6461	0.6033	0.025
Mof_N 	N 	0.39567	0.01853	0.90687	-0.11
Mof_N 	N 	0.55427	0.15263	0.86723	-0.178
Mof_N 	N 	0.61537	0.10413	0.89273	-0.091
Mof_C 	C 	0.42357	0.10033	0.87597	0.103
Mof_H 	H 	0.35907	0.11643	0.86303	0.003
Mof_C 	C 	0.51747	0.02543	0.9161	0.047
Mof_H 	H 	0.52947	0.97943	0.93663	0.056
Mof_N 	N 	0.06233	0.35187	0.24021	-0.119
Mof_N 	N 	0.22093	0.48597	0.20057	-0.177
Mof_N 	N 	0.28203	0.43747	0.22607	-0.098
Mof_C 	C 	0.09023	0.43367	0.20931	0.101
Mof_H 	H 	0.02573	0.44977	0.19637	0.002
Mof_C 	C 	0.18413	0.35877	0.24944	0.096
Mof_H 	H 	0.19613	0.31277	0.26997	0.012
Mof_N 	N 	0.9562	0.271	0.57354	-0.078
Mof_N 	N 	0.9317	0.1124	0.5339	-0.152
Mof_N 	N 	0.8221	0.0513	0.5594	-0.102
Mof_C 	C 	0.0101	0.2431	0.54264	0.042
Mof_H 	H 	0.0907	0.3076	0.5297	0.027
Mof_C 	C 	0.8413	0.1492	0.58277	0.102
Mof_H 	H 	0.7833	0.1372	0.6033	0.015
Mof_N 	N 	0.62287	0.60433	0.90687	-0.105
Mof_N 	N 	0.59837	0.44573	0.86723	-0.176
Mof_N 	N 	0.48877	0.38463	0.89273	-0.097
Mof_C 	C 	0.67677	0.57643	0.87597	0.105
Mof_H 	H 	0.75737	0.64093	0.86303	0.014
Mof_C 	C 	0.50797	0.48253	0.9161	0.099
Mof_H 	H 	0.44997	0.47053	0.93663	0.019
Mof_N 	N 	0.28953	0.93767	0.24021	-0.095
Mof_N 	N 	0.26503	0.77907	0.20057	-0.176
Mof_N 	N 	0.15543	0.71797	0.22607	-0.1
Mof_C 	C 	0.34343	0.90977	0.20931	0.105
Mof_H 	H 	0.42403	0.97427	0.19637	0.017
Mof_C 	C 	0.17463	0.81587	0.24944	0.098
Mof_H 	H 	0.11663	0.80387	0.26997	0.016
Mof_Cu	Cu	-0	0	-0	0.862
Mof_Cu	Cu	0.66667	0.33333	0.33333	0.889
Mof_Cu	Cu	0.33333	0.66667	0.66667	0.889
Mof_Cu	Cu	-0	0	0.5	0.865
Mof_Cu	Cu	0.66667	0.33333	0.83333	0.889
Mof_Cu	Cu	0.33333	0.66667	0.16667	0.889
_end
