data_functionalizedCrystal
_audit_creation_method	'EQeq! by Chris Wilmer'
_symmetry_space_group_name_H-M	'P1'
_symmetry_Int_Tables_number	1
_symmetry_cell_setting	triclinic
loop_
_symmetry_equiv_pos_as_xyz
  x,y,z
_cell_length_a	8.3425
_cell_length_b	11.9337
_cell_length_c	21.6641
_cell_angle_alpha	90
_cell_angle_beta	90
_cell_angle_gamma	90
loop_
_atom_site_label
_atom_site_type_symbol
_atom_site_fract_x
_atom_site_fract_y
_atom_site_fract_z
_atom_site_charge
Mof_Cu	Cu	0.52683	0.35891	0.50162	0.786
Mof_Cu	Cu	0.94142	0.35636	0.49905	0.78
Mof_Cu	Cu	0.759	0.52245	0.7461	0.841
Mof_N 	N 	0.8221	0.4066	0.5751	-0.222
Mof_N 	N 	0.8463	0.5918	0.9267	-0.194
Mof_N 	N 	0.6842	0.6004	0.9225	-0.226
Mof_C 	C 	0.3039	0.3344	0.4993	-0.329
Mof_N 	N 	0.6563	0.4052	0.5742	-0.199
Mof_N 	N 	0.7271	0.4614	0.6635	-0.205
Mof_N 	N 	0.9094	0.569	0.8729	-0.097
Mof_C 	C 	0.6523	0.58	0.8645	0.044
Mof_N 	N 	0.7861	0.5604	0.8334	-0.214
Mof_N 	N 	0.6005	0.4384	0.6268	-0.09
Mof_C 	C 	0.8608	0.4418	0.6312	0.021
Mof_N 	N 	0.1677	0.3352	0.4981	-0.252
Mof_N 	N 	0.5252	0.532	0.7676	-0.239
Mof_C 	C 	0.0218	0.4623	0.6601	0.116
Mof_H 	H 	0.07508	0.52377	0.63823	-0.043
Mof_C 	C 	0.498	0.5763	0.831	0.055
Mof_H 	H 	0.4575	0.65308	0.82737	-0.017
Mof_C 	C 	0.1283	0.3612	0.6589	-0.551
Mof_H 	H 	0.07682	0.30052	0.6802	0.16
Mof_H 	H 	0.22803	0.37848	0.6789	0.169
Mof_H 	H 	0.14845	0.33982	0.6169	0.148
Mof_C 	C 	0.3689	0.5053	0.8626	-0.464
Mof_H 	H 	0.4033	0.42859	0.86424	0.135
Mof_H 	H 	0.27073	0.51028	0.83964	0.144
Mof_H 	H 	0.35169	0.53253	0.90378	0.119
Mof_N 	N 	0.9891	0.4976	0.725	-0.354
Mof_H 	H 	0.04245	0.56084	0.73227	0.086
Mof_H 	H 	0.02814	0.44556	0.75027	0.09
Mof_Cu	Cu	0.97317	0.64109	0.00162	0.787
Mof_Cu	Cu	0.55858	0.64364	0.99905	0.781
Mof_Cu	Cu	0.741	0.47755	0.2461	0.842
Mof_N 	N 	0.6779	0.5934	0.0751	-0.222
Mof_N 	N 	0.6537	0.4082	0.4267	-0.193
Mof_N 	N 	0.8158	0.3996	0.4225	-0.226
Mof_C 	C 	0.1961	0.6656	0.9993	-0.328
Mof_N 	N 	0.8437	0.5948	0.0742	-0.198
Mof_N 	N 	0.7729	0.5386	0.1635	-0.205
Mof_N 	N 	0.5906	0.431	0.3729	-0.097
Mof_C 	C 	0.8477	0.42	0.3645	0.044
Mof_N 	N 	0.7139	0.4396	0.3334	-0.214
Mof_N 	N 	0.8995	0.5616	0.1268	-0.09
Mof_C 	C 	0.6392	0.5582	0.1312	0.021
Mof_N 	N 	0.3323	0.6648	0.9981	-0.252
Mof_N 	N 	0.9748	0.468	0.2676	-0.239
Mof_C 	C 	0.4782	0.5377	0.1601	0.115
Mof_H 	H 	0.42492	0.47623	0.13823	-0.043
Mof_C 	C 	0.002	0.4237	0.331	0.054
Mof_H 	H 	0.0425	0.34692	0.32737	-0.017
Mof_C 	C 	0.3717	0.6388	0.1589	-0.551
Mof_H 	H 	0.42318	0.69948	0.1802	0.16
Mof_H 	H 	0.27197	0.62152	0.1789	0.169
Mof_H 	H 	0.35155	0.66018	0.1169	0.148
Mof_C 	C 	0.1311	0.4947	0.3626	-0.463
Mof_H 	H 	0.0967	0.57141	0.36424	0.135
Mof_H 	H 	0.22927	0.48972	0.33964	0.144
Mof_H 	H 	0.14831	0.46747	0.40378	0.119
Mof_N 	N 	0.5109	0.5024	0.225	-0.353
Mof_H 	H 	0.45755	0.43916	0.23227	0.086
Mof_H 	H 	0.47186	0.55444	0.25027	0.09
Mof_Cu	Cu	0.47317	0.85891	0.99838	0.787
Mof_Cu	Cu	0.05858	0.85636	0.00095	0.781
Mof_Cu	Cu	0.241	0.02245	0.7539	0.842
Mof_N 	N 	0.1779	0.9066	0.9249	-0.222
Mof_N 	N 	0.1537	0.0918	0.5733	-0.194
Mof_N 	N 	0.3158	0.1004	0.5775	-0.226
Mof_C 	C 	0.6961	0.8344	0.0007	-0.328
Mof_N 	N 	0.3437	0.9052	0.9258	-0.199
Mof_N 	N 	0.2729	0.9614	0.8365	-0.206
Mof_N 	N 	0.0906	0.069	0.6271	-0.098
Mof_C 	C 	0.3477	0.08	0.6355	0.044
Mof_N 	N 	0.2139	0.0604	0.6666	-0.214
Mof_N 	N 	0.3995	0.9384	0.8732	-0.09
Mof_C 	C 	0.1392	0.9418	0.8688	0.023
Mof_N 	N 	0.8323	0.8352	0.0019	-0.252
Mof_N 	N 	0.4748	0.032	0.7324	-0.239
Mof_C 	C 	0.9782	0.9623	0.8399	0.112
Mof_H 	H 	0.92492	0.02377	0.86177	-0.042
Mof_C 	C 	0.502	0.0763	0.669	0.055
Mof_H 	H 	0.5425	0.15308	0.67263	-0.017
Mof_C 	C 	0.8717	0.8612	0.8411	-0.548
Mof_H 	H 	0.92318	0.80052	0.8198	0.159
Mof_H 	H 	0.77197	0.87848	0.8211	0.168
Mof_H 	H 	0.85155	0.83982	0.8831	0.147
Mof_C 	C 	0.6311	0.0053	0.6374	-0.465
Mof_H 	H 	0.5967	0.92859	0.63576	0.135
Mof_H 	H 	0.72927	0.01028	0.66036	0.144
Mof_H 	H 	0.64831	0.03253	0.59622	0.119
Mof_N 	N 	0.0109	0.9976	0.775	-0.351
Mof_H 	H 	0.95755	0.06084	0.76773	0.085
Mof_H 	H 	0.97186	0.94556	0.74973	0.089
Mof_Cu	Cu	0.02683	0.14109	0.49838	0.787
Mof_Cu	Cu	0.44142	0.14364	0.50095	0.781
Mof_Cu	Cu	0.259	0.97755	0.2539	0.842
Mof_N 	N 	0.3221	0.0934	0.4249	-0.222
Mof_N 	N 	0.3463	0.9082	0.0733	-0.194
Mof_N 	N 	0.1842	0.8996	0.0775	-0.226
Mof_C 	C 	0.8039	0.1656	0.5007	-0.328
Mof_N 	N 	0.1563	0.0948	0.4258	-0.199
Mof_N 	N 	0.2271	0.0386	0.3365	-0.205
Mof_N 	N 	0.4094	0.931	0.1271	-0.098
Mof_C 	C 	0.1523	0.92	0.1355	0.043
Mof_N 	N 	0.2861	0.9396	0.1666	-0.214
Mof_N 	N 	0.1005	0.0616	0.3732	-0.09
Mof_C 	C 	0.3608	0.0582	0.3688	0.021
Mof_N 	N 	0.6677	0.1648	0.5019	-0.252
Mof_N 	N 	0.0252	0.968	0.2324	-0.24
Mof_C 	C 	0.5218	0.0377	0.3399	0.117
Mof_H 	H 	0.57508	0.97623	0.36177	-0.044
Mof_C 	C 	0.998	0.9237	0.169	0.057
Mof_H 	H 	0.9575	0.84692	0.17263	-0.018
Mof_C 	C 	0.6283	0.1388	0.3411	-0.553
Mof_H 	H 	0.57682	0.19948	0.3198	0.16
Mof_H 	H 	0.72803	0.12152	0.3211	0.17
Mof_H 	H 	0.64845	0.16018	0.3831	0.148
Mof_C 	C 	0.8689	0.9947	0.1374	-0.471
Mof_H 	H 	0.9033	0.07141	0.13576	0.138
Mof_H 	H 	0.77073	0.98972	0.16036	0.146
Mof_H 	H 	0.85169	0.96747	0.09622	0.121
Mof_N 	N 	0.4891	0.0024	0.275	-0.353
Mof_H 	H 	0.54245	0.93916	0.26773	0.085
Mof_H 	H 	0.52814	0.05444	0.24973	0.09
_end
