data_functionalizedCrystal
_audit_creation_method	'EQeq! by Chris Wilmer'
_symmetry_space_group_name_H-M	'P1'
_symmetry_Int_Tables_number	1
_symmetry_cell_setting	triclinic
loop_
_symmetry_equiv_pos_as_xyz
  x,y,z
_cell_length_a	8.6615
_cell_length_b	14.5663
_cell_length_c	15.239
_cell_angle_alpha	102.975
_cell_angle_beta	90
_cell_angle_gamma	107.296
loop_
_atom_site_label
_atom_site_type_symbol
_atom_site_fract_x
_atom_site_fract_y
_atom_site_fract_z
_atom_site_charge
Mof_Mn	Mn	0.4917	0.49348	0.38385	0.724
Mof_Mn	Mn	0.99822	0.50652	0.11615	0.72
Mof_Mn	Mn	0.5083	0.50652	0.61615	0.724
Mof_Mn	Mn	0.00178	0.49348	0.88385	0.72
Mof_H 	H 	0.6424	0.7246	0.3811	0.032
Mof_H 	H 	0.8675	0.5392	0.4164	0.005
Mof_H 	H 	0.1147	0.6558	0.4207	0.079
Mof_H 	H 	0.1257	0.8126	0.4067	0.053
Mof_H 	H 	0.7796	0.8954	0.3812	0.046
Mof_H 	H 	0.206	0.0916	0.3619	0.046
Mof_H 	H 	0.8571	0.1762	0.3523	0.053
Mof_H 	H 	0.8638	0.3336	0.3434	0.082
Mof_H 	H 	0.1107	0.4524	0.3509	0.005
Mof_H 	H 	0.3397	0.262	0.3589	0.032
Mof_H 	H 	0.9178	0.2754	0.1189	0.029
Mof_H 	H 	0.3283	0.4608	0.0836	0.005
Mof_H 	H 	0.4589	0.3442	0.0793	0.079
Mof_H 	H 	0.3131	0.1874	0.0933	0.054
Mof_H 	H 	0.8842	0.1046	0.1188	0.047
Mof_H 	H 	0.1144	0.9084	0.1381	0.045
Mof_H 	H 	0.6809	0.8238	0.1477	0.053
Mof_H 	H 	0.5302	0.6664	0.1566	0.082
Mof_H 	H 	0.6583	0.5476	0.1491	0.005
Mof_H 	H 	0.0777	0.738	0.1411	0.034
Mof_H 	H 	0.3576	0.2754	0.6189	0.032
Mof_H 	H 	0.1325	0.4608	0.5836	0.005
Mof_H 	H 	0.8853	0.3442	0.5793	0.079
Mof_H 	H 	0.8743	0.1874	0.5933	0.053
Mof_H 	H 	0.2204	0.1046	0.6188	0.046
Mof_H 	H 	0.794	0.9084	0.6381	0.046
Mof_H 	H 	0.1429	0.8238	0.6477	0.053
Mof_H 	H 	0.1362	0.6664	0.6566	0.082
Mof_H 	H 	0.8893	0.5476	0.6491	0.005
Mof_H 	H 	0.6603	0.738	0.6411	0.032
Mof_H 	H 	0.0822	0.7246	0.8811	0.029
Mof_H 	H 	0.6717	0.5392	0.9164	0.005
Mof_H 	H 	0.5411	0.6558	0.9207	0.079
Mof_H 	H 	0.6869	0.8126	0.9067	0.054
Mof_H 	H 	0.1158	0.8954	0.8812	0.047
Mof_H 	H 	0.8856	0.0916	0.8619	0.045
Mof_H 	H 	0.3191	0.1762	0.8523	0.053
Mof_H 	H 	0.4698	0.3336	0.8434	0.082
Mof_H 	H 	0.3417	0.4524	0.8509	0.005
Mof_H 	H 	0.9223	0.262	0.8589	0.034
Mof_C 	C 	0.73903	0.71086	0.3891	0.021
Mof_C 	C 	0.87074	0.60148	0.4095	0.064
Mof_C 	C 	0.01981	0.67142	0.4128	-0.095
Mof_C 	C 	0.02633	0.76426	0.4044	-0.009
Mof_C 	C 	0.88254	0.78528	0.3924	-0.007
Mof_C 	C 	0.8781	0.8824	0.3831	0.017
Mof_C 	C 	0.10741	0.10502	0.3637	0.019
Mof_C 	C 	0.09989	0.20258	0.3577	-0.004
Mof_C 	C 	0.9557	0.2246	0.3528	-0.01
Mof_C 	C 	0.95942	0.31784	0.3486	-0.101
Mof_C 	C 	0.1088	0.3886	0.352	0.069
Mof_C 	C 	0.24261	0.27702	0.358	0.018
Mof_C 	C 	0.02817	0.28914	0.1109	0.024
Mof_C 	C 	0.26926	0.39852	0.0905	0.064
Mof_C 	C 	0.34839	0.32858	0.0872	-0.096
Mof_C 	C 	0.26207	0.23574	0.0956	-0.011
Mof_C 	C 	0.09726	0.21472	0.1076	-0.003
Mof_C 	C 	0.9957	0.1176	0.1169	0.012
Mof_C 	C 	0.00239	0.89498	0.1363	0.024
Mof_C 	C 	0.89731	0.79742	0.1423	-0.007
Mof_C 	C 	0.7311	0.7754	0.1472	-0.008
Mof_C 	C 	0.64158	0.68216	0.1514	-0.101
Mof_C 	C 	0.7202	0.6114	0.148	0.068
Mof_C 	C 	0.96559	0.72298	0.142	0.015
Mof_C 	C 	0.26097	0.28914	0.6109	0.021
Mof_C 	C 	0.12926	0.39852	0.5905	0.064
Mof_C 	C 	0.98019	0.32858	0.5872	-0.095
Mof_C 	C 	0.97367	0.23574	0.5956	-0.009
Mof_C 	C 	0.11746	0.21472	0.6076	-0.007
Mof_C 	C 	0.1219	0.1176	0.6169	0.017
Mof_C 	C 	0.89259	0.89498	0.6363	0.019
Mof_C 	C 	0.90011	0.79742	0.6423	-0.004
Mof_C 	C 	0.0443	0.7754	0.6472	-0.01
Mof_C 	C 	0.04058	0.68216	0.6514	-0.101
Mof_C 	C 	0.8912	0.6114	0.648	0.069
Mof_C 	C 	0.75739	0.72298	0.642	0.018
Mof_C 	C 	0.97183	0.71086	0.8891	0.024
Mof_C 	C 	0.73074	0.60148	0.9095	0.064
Mof_C 	C 	0.65161	0.67142	0.9128	-0.096
Mof_C 	C 	0.73793	0.76426	0.9044	-0.011
Mof_C 	C 	0.90274	0.78528	0.8924	-0.003
Mof_C 	C 	0.0043	0.8824	0.8831	0.012
Mof_C 	C 	0.99761	0.10502	0.8637	0.024
Mof_C 	C 	0.10269	0.20258	0.8577	-0.007
Mof_C 	C 	0.2689	0.2246	0.8528	-0.008
Mof_C 	C 	0.35842	0.31784	0.8486	-0.101
Mof_C 	C 	0.2798	0.3886	0.852	0.068
Mof_C 	C 	0.03441	0.27702	0.858	0.015
Mof_N 	N 	0.73138	0.61936	0.3968	-0.174
Mof_N 	N 	0.01057	0.94934	0.3776	-0.078
Mof_N 	N 	0.97626	0.03832	0.3716	-0.08
Mof_N 	N 	0.24872	0.37024	0.357	-0.176
Mof_N 	N 	0.58458	0.43016	0.4874	-0.194
Mof_N 	N 	0.59854	0.34848	0.4759	-0.045
Mof_N 	N 	0.61102	0.27044	0.4646	-0.077
Mof_N 	N 	0.59431	0.40322	0.2804	-0.14
Mof_N 	N 	0.70699	0.41578	0.2375	-0.033
Mof_N 	N 	0.8192	0.4256	0.1956	-0.142
Mof_N 	N 	0.11202	0.38064	0.1032	-0.173
Mof_N 	N 	0.06123	0.05066	0.1224	-0.077
Mof_N 	N 	0.93794	0.96168	0.1284	-0.081
Mof_N 	N 	0.87848	0.62976	0.143	-0.176
Mof_N 	N 	0.15442	0.56984	0.0126	-0.192
Mof_N 	N 	0.25006	0.65152	0.0241	-0.045
Mof_N 	N 	0.34058	0.72956	0.0354	-0.076
Mof_N 	N 	0.19109	0.59678	0.2196	-0.139
Mof_N 	N 	0.29121	0.58422	0.2625	-0.033
Mof_N 	N 	0.3936	0.5744	0.3044	-0.142
Mof_N 	N 	0.26862	0.38064	0.6032	-0.174
Mof_N 	N 	0.98943	0.05066	0.6224	-0.078
Mof_N 	N 	0.02374	0.96168	0.6284	-0.08
Mof_N 	N 	0.75128	0.62976	0.643	-0.176
Mof_N 	N 	0.41542	0.56984	0.5126	-0.194
Mof_N 	N 	0.40146	0.65152	0.5241	-0.045
Mof_N 	N 	0.38898	0.72956	0.5354	-0.077
Mof_N 	N 	0.40569	0.59678	0.7196	-0.14
Mof_N 	N 	0.29301	0.58422	0.7625	-0.033
Mof_N 	N 	0.1808	0.5744	0.8044	-0.142
Mof_N 	N 	0.88798	0.61936	0.8968	-0.173
Mof_N 	N 	0.93877	0.94934	0.8776	-0.077
Mof_N 	N 	0.06206	0.03832	0.8716	-0.081
Mof_N 	N 	0.12152	0.37024	0.857	-0.176
Mof_N 	N 	0.84558	0.43016	0.9874	-0.192
Mof_N 	N 	0.74994	0.34848	0.9759	-0.045
Mof_N 	N 	0.65942	0.27044	0.9646	-0.076
Mof_N 	N 	0.80891	0.40322	0.7804	-0.139
Mof_N 	N 	0.70879	0.41578	0.7375	-0.033
Mof_N 	N 	0.6064	0.4256	0.6956	-0.142
_end
