data_functionalizedCrystal
_audit_creation_method	'EQeq! by Chris Wilmer'
_symmetry_space_group_name_H-M	'P1'
_symmetry_Int_Tables_number	1
_symmetry_cell_setting	triclinic
loop_
_symmetry_equiv_pos_as_xyz
  x,y,z
_cell_length_a	26.4842
_cell_length_b	5.891
_cell_length_c	21.4712
_cell_angle_alpha	90
_cell_angle_beta	111.538
_cell_angle_gamma	90
loop_
_atom_site_label
_atom_site_type_symbol
_atom_site_fract_x
_atom_site_fract_y
_atom_site_fract_z
_atom_site_charge
Mof_O 	O 	0.0592	0.8773	0.30285	-0.501
Mof_O 	O 	0.1191	0.6612	0.288	-0.332
Mof_N 	N 	0.99425	0.4721	0.32211	-0.244
Mof_C 	C 	0.1069	0.8174	0.3152	0.404
Mof_C 	C 	0.1495	0.945	0.37	-0.143
Mof_C 	C 	0.1365	0.1143	0.4032	0.065
Mof_H 	H 	0.1003	0.1558	0.3915	0.02
Mof_C 	C 	0.1761	0.2283	0.4546	-0.117
Mof_H 	H 	0.1652	0.3394	0.4778	0.077
Mof_C 	C 	0.2289	0.187	0.4725	0.04
Mof_C 	C 	0.2432	0.077	0.4251	-0.021
Mof_C 	C 	0.2044	0.954	0.3737	0.045
Mof_C 	C 	0.9638	0.2832	0.3058	0.123
Mof_H 	H 	0.9435	0.2564	0.2608	-0.009
Mof_C 	C 	0.9611	0.1291	0.3518	-0.191
Mof_H 	H 	0.9398	0.9999	0.3379	0.098
Mof_C 	C 	0.9904	0.1652	0.4193	0.165
Mof_C 	C 	0.0212	0.3611	0.4366	-0.227
Mof_H 	H 	0.0409	0.3929	0.4814	0.1
Mof_C 	C 	0.0229	0.5106	0.3875	0.063
Mof_H 	H 	0.0443	0.6402	0.3999	-0.011
Mof_C 	C 	0.9864	0.9962	0.4682	-0.021
Mof_H 	H 	0.9625	0.8756	0.4519	0.048
Mof_C 	C 	0.2385	0.948	0.4583	-0.019
Mof_C 	C 	0.1994	0.834	0.4076	0.028
Mof_O 	O 	0.5592	0.3773	0.30285	-0.488
Mof_O 	O 	0.6191	0.1612	0.288	-0.329
Mof_N 	N 	0.49425	0.9721	0.32211	-0.269
Mof_C 	C 	0.6069	0.3174	0.3152	0.4
Mof_C 	C 	0.6495	0.445	0.37	-0.137
Mof_C 	C 	0.6365	0.6143	0.4032	0.06
Mof_H 	H 	0.6003	0.6558	0.3915	0.027
Mof_C 	C 	0.6761	0.7283	0.4546	-0.113
Mof_H 	H 	0.6652	0.8394	0.4778	0.077
Mof_C 	C 	0.7289	0.687	0.4725	0.038
Mof_C 	C 	0.7432	0.577	0.4251	-0.022
Mof_C 	C 	0.7044	0.454	0.3737	0.046
Mof_C 	C 	0.4638	0.7832	0.3058	0.105
Mof_H 	H 	0.4435	0.7564	0.2608	-0.009
Mof_C 	C 	0.4611	0.6291	0.3518	-0.183
Mof_H 	H 	0.4398	0.4999	0.3379	0.091
Mof_C 	C 	0.4904	0.6652	0.4193	0.125
Mof_C 	C 	0.5212	0.8611	0.4366	-0.172
Mof_H 	H 	0.5409	0.8929	0.4814	0.091
Mof_C 	C 	0.5229	0.0106	0.3875	0.086
Mof_H 	H 	0.5443	0.1402	0.3999	-0.01
Mof_C 	C 	0.4864	0.4962	0.4682	-0.09
Mof_H 	H 	0.4625	0.3756	0.4519	0.062
Mof_C 	C 	0.7385	0.448	0.4583	-0.015
Mof_C 	C 	0.6994	0.334	0.4076	0.026
Mof_O 	O 	0.9408	0.8773	0.19715	-0.468
Mof_O 	O 	0.8809	0.6612	0.212	-0.323
Mof_N 	N 	0.00575	0.4721	0.17789	-0.298
Mof_C 	C 	0.8931	0.8174	0.1848	0.395
Mof_C 	C 	0.8505	0.945	0.13	-0.134
Mof_C 	C 	0.8635	0.1143	0.0968	0.058
Mof_H 	H 	0.8997	0.1558	0.1085	0.032
Mof_C 	C 	0.8239	0.2283	0.0454	-0.113
Mof_H 	H 	0.8348	0.3394	0.0222	0.079
Mof_C 	C 	0.7711	0.187	0.0275	0.043
Mof_C 	C 	0.7568	0.077	0.0749	-0.022
Mof_C 	C 	0.7956	0.954	0.1263	0.044
Mof_C 	C 	0.0362	0.2832	0.1942	0.091
Mof_H 	H 	0.0565	0.2564	0.2392	-0.011
Mof_C 	C 	0.0389	0.1291	0.1482	-0.18
Mof_H 	H 	0.0602	0.9999	0.1621	0.087
Mof_C 	C 	0.0096	0.1652	0.0807	0.09
Mof_C 	C 	0.9788	0.3611	0.0634	-0.13
Mof_H 	H 	0.9591	0.3929	0.0186	0.089
Mof_C 	C 	0.9771	0.5106	0.1125	0.126
Mof_H 	H 	0.9557	0.6402	0.1001	-0.013
Mof_C 	C 	0.0136	0.9962	0.0318	-0.147
Mof_H 	H 	0.0375	0.8756	0.0481	0.073
Mof_C 	C 	0.7615	0.948	0.0417	-0.015
Mof_C 	C 	0.8006	0.834	0.0924	0.027
Mof_O 	O 	0.4408	0.3773	0.19715	-0.488
Mof_O 	O 	0.3809	0.1612	0.212	-0.33
Mof_N 	N 	0.50575	0.9721	0.17789	-0.268
Mof_C 	C 	0.3931	0.3174	0.1848	0.4
Mof_C 	C 	0.3505	0.445	0.13	-0.139
Mof_C 	C 	0.3635	0.6143	0.0968	0.062
Mof_H 	H 	0.3997	0.6558	0.1085	0.026
Mof_C 	C 	0.3239	0.7283	0.0454	-0.117
Mof_H 	H 	0.3348	0.8394	0.0222	0.079
Mof_C 	C 	0.2711	0.687	0.0275	0.044
Mof_C 	C 	0.2568	0.577	0.0749	-0.024
Mof_C 	C 	0.2956	0.454	0.1263	0.046
Mof_C 	C 	0.5362	0.7832	0.1942	0.103
Mof_H 	H 	0.5565	0.7564	0.2392	-0.009
Mof_C 	C 	0.5389	0.6291	0.1482	-0.18
Mof_H 	H 	0.5602	0.4999	0.1621	0.09
Mof_C 	C 	0.5096	0.6652	0.0807	0.12
Mof_C 	C 	0.4788	0.8611	0.0634	-0.167
Mof_H 	H 	0.4591	0.8929	0.0186	0.091
Mof_C 	C 	0.4771	0.0106	0.1125	0.084
Mof_H 	H 	0.4557	0.1402	0.1001	-0.009
Mof_C 	C 	0.5136	0.4962	0.0318	-0.077
Mof_H 	H 	0.5375	0.3756	0.0481	0.059
Mof_C 	C 	0.2615	0.448	0.0417	-0.014
Mof_C 	C 	0.3006	0.334	0.0924	0.026
Mof_O 	O 	0.9408	0.1227	0.69715	-0.468
Mof_O 	O 	0.8809	0.3388	0.712	-0.323
Mof_N 	N 	0.00575	0.5279	0.67789	-0.299
Mof_C 	C 	0.8931	0.1826	0.6848	0.394
Mof_C 	C 	0.8505	0.055	0.63	-0.132
Mof_C 	C 	0.8635	0.8857	0.5968	0.055
Mof_H 	H 	0.8997	0.8442	0.6085	0.033
Mof_C 	C 	0.8239	0.7717	0.5454	-0.109
Mof_H 	H 	0.8348	0.6606	0.5222	0.076
Mof_C 	C 	0.7711	0.813	0.5275	0.036
Mof_C 	C 	0.7568	0.923	0.5749	-0.021
Mof_C 	C 	0.7956	0.046	0.6263	0.044
Mof_C 	C 	0.0362	0.7168	0.6942	0.093
Mof_H 	H 	0.0565	0.7436	0.7392	-0.011
Mof_C 	C 	0.0389	0.8709	0.6482	-0.184
Mof_H 	H 	0.0602	0.0001	0.6621	0.088
Mof_C 	C 	0.0096	0.8348	0.5807	0.094
Mof_C 	C 	0.9788	0.6389	0.5634	-0.133
Mof_H 	H 	0.9591	0.6071	0.5186	0.089
Mof_C 	C 	0.9771	0.4894	0.6125	0.128
Mof_H 	H 	0.9557	0.3598	0.6001	-0.014
Mof_C 	C 	0.0136	0.0038	0.5318	-0.16
Mof_H 	H 	0.0375	0.1244	0.5481	0.076
Mof_C 	C 	0.7615	0.052	0.5417	-0.016
Mof_C 	C 	0.8006	0.166	0.5924	0.026
Mof_O 	O 	0.4408	0.6227	0.69715	-0.488
Mof_O 	O 	0.3809	0.8388	0.712	-0.33
Mof_N 	N 	0.50575	0.0279	0.67789	-0.269
Mof_C 	C 	0.3931	0.6826	0.6848	0.4
Mof_C 	C 	0.3505	0.555	0.63	-0.137
Mof_C 	C 	0.3635	0.3857	0.5968	0.059
Mof_H 	H 	0.3997	0.3442	0.6085	0.027
Mof_C 	C 	0.3239	0.2717	0.5454	-0.112
Mof_H 	H 	0.3348	0.1606	0.5222	0.077
Mof_C 	C 	0.2711	0.313	0.5275	0.036
Mof_C 	C 	0.2568	0.423	0.5749	-0.023
Mof_C 	C 	0.2956	0.546	0.6263	0.045
Mof_C 	C 	0.5362	0.2168	0.6942	0.105
Mof_H 	H 	0.5565	0.2436	0.7392	-0.009
Mof_C 	C 	0.5389	0.3709	0.6482	-0.182
Mof_H 	H 	0.5602	0.5001	0.6621	0.091
Mof_C 	C 	0.5096	0.3348	0.5807	0.124
Mof_C 	C 	0.4788	0.1389	0.5634	-0.17
Mof_H 	H 	0.4591	0.1071	0.5186	0.091
Mof_C 	C 	0.4771	0.9894	0.6125	0.084
Mof_H 	H 	0.4557	0.8598	0.6001	-0.01
Mof_C 	C 	0.5136	0.5038	0.5318	-0.089
Mof_H 	H 	0.5375	0.6244	0.5481	0.061
Mof_C 	C 	0.2615	0.552	0.5417	-0.015
Mof_C 	C 	0.3006	0.666	0.5924	0.025
Mof_O 	O 	0.0592	0.1227	0.80285	-0.5
Mof_O 	O 	0.1191	0.3388	0.788	-0.332
Mof_N 	N 	0.99425	0.5279	0.82211	-0.245
Mof_C 	C 	0.1069	0.1826	0.8152	0.403
Mof_C 	C 	0.1495	0.055	0.87	-0.14
Mof_C 	C 	0.1365	0.8857	0.9032	0.06
Mof_H 	H 	0.1003	0.8442	0.8915	0.022
Mof_C 	C 	0.1761	0.7717	0.9546	-0.112
Mof_H 	H 	0.1652	0.6606	0.9778	0.074
Mof_C 	C 	0.2289	0.813	0.9725	0.032
Mof_C 	C 	0.2432	0.923	0.9251	-0.022
Mof_C 	C 	0.2044	0.046	0.8737	0.046
Mof_C 	C 	0.9638	0.7168	0.8058	0.124
Mof_H 	H 	0.9435	0.7436	0.7608	-0.01
Mof_C 	C 	0.9611	0.8709	0.8518	-0.195
Mof_H 	H 	0.9398	0.0001	0.8379	0.1
Mof_C 	C 	0.9904	0.8348	0.9193	0.168
Mof_C 	C 	0.0212	0.6389	0.9366	-0.229
Mof_H 	H 	0.0409	0.6071	0.9814	0.099
Mof_C 	C 	0.0229	0.4894	0.8875	0.065
Mof_H 	H 	0.0443	0.3598	0.8999	-0.012
Mof_C 	C 	0.9864	0.0038	0.9682	-0.033
Mof_H 	H 	0.9625	0.1244	0.9519	0.051
Mof_C 	C 	0.2385	0.052	0.9583	-0.017
Mof_C 	C 	0.1994	0.166	0.9076	0.026
Mof_O 	O 	0.5592	0.6227	0.80285	-0.488
Mof_O 	O 	0.6191	0.8388	0.788	-0.329
Mof_N 	N 	0.49425	0.0279	0.82211	-0.269
Mof_C 	C 	0.6069	0.6826	0.8152	0.399
Mof_C 	C 	0.6495	0.555	0.87	-0.136
Mof_C 	C 	0.6365	0.3857	0.9032	0.057
Mof_H 	H 	0.6003	0.3442	0.8915	0.028
Mof_C 	C 	0.6761	0.2717	0.9546	-0.109
Mof_H 	H 	0.6652	0.1606	0.9778	0.075
Mof_C 	C 	0.7289	0.313	0.9725	0.032
Mof_C 	C 	0.7432	0.423	0.9251	-0.02
Mof_C 	C 	0.7044	0.546	0.8737	0.045
Mof_C 	C 	0.4638	0.2168	0.8058	0.106
Mof_H 	H 	0.4435	0.2436	0.7608	-0.01
Mof_C 	C 	0.4611	0.3709	0.8518	-0.185
Mof_H 	H 	0.4398	0.5001	0.8379	0.092
Mof_C 	C 	0.4904	0.3348	0.9193	0.129
Mof_C 	C 	0.5212	0.1389	0.9366	-0.173
Mof_H 	H 	0.5409	0.1071	0.9814	0.091
Mof_C 	C 	0.5229	0.9894	0.8875	0.085
Mof_H 	H 	0.5443	0.8598	0.8999	-0.01
Mof_C 	C 	0.4864	0.5038	0.9682	-0.101
Mof_H 	H 	0.4625	0.6244	0.9519	0.064
Mof_C 	C 	0.7385	0.552	0.9583	-0.017
Mof_C 	C 	0.6994	0.666	0.9076	0.025
Mof_Zn	Zn	1.03891e-33	0.68393	0.25	1.198
Mof_Zn	Zn	0.5	0.18393	0.25	1.211
Mof_Zn	Zn	-3.64849e-17	0.31607	0.75	1.198
Mof_Zn	Zn	0.5	0.81607	0.75	1.211
_end
