data_functionalizedCrystal
_audit_creation_method	'EQeq! by Chris Wilmer'
_symmetry_space_group_name_H-M	'P1'
_symmetry_Int_Tables_number	1
_symmetry_cell_setting	triclinic
loop_
_symmetry_equiv_pos_as_xyz
  x,y,z
_cell_length_a	9.528
_cell_length_b	12.0112
_cell_length_c	16.899
_cell_angle_alpha	96.3289
_cell_angle_beta	90
_cell_angle_gamma	113.368
loop_
_atom_site_label
_atom_site_type_symbol
_atom_site_fract_x
_atom_site_fract_y
_atom_site_fract_z
_atom_site_charge
Mof_Sm	Sm	0.7964	0.99086	0.06579	2.659
Mof_Sm	Sm	0.19446	0.99086	0.56579	2.677
Mof_Sm	Sm	0.2036	0.00914	0.93421	2.659
Mof_Sm	Sm	0.80554	0.00914	0.43421	2.677
Mof_Ag	Ag	0.22294	0.68394	0.41638	0.694
Mof_Ag	Ag	0.539	0.31606	0.08362	0.695
Mof_Ag	Ag	0.77706	0.31606	0.58362	0.694
Mof_Ag	Ag	0.461	0.68394	0.91638	0.695
Mof_H 	H 	0.4662	0.0994	0.3321	0.03
Mof_H 	H 	0.4475	0.6984	0.55	-0.026
Mof_H 	H 	0.4911	0.4204	0.3712	0.113
Mof_H 	H 	0.0892	0.419	0.4586	-0.055
Mof_H 	H 	0.9293	0.4204	0.8712	0.113
Mof_H 	H 	0.3298	0.419	0.9586	-0.053
Mof_H 	H 	0.5089	0.5796	0.6288	0.113
Mof_H 	H 	0.9108	0.581	0.5414	-0.055
Mof_H 	H 	0.8815	0.8096	0.7206	0.036
Mof_H 	H 	0.0719	0.1904	0.7794	0.031
Mof_H 	H 	0.0303	0.2882	0.6779	-0.006
Mof_H 	H 	0.0105	0.3732	0.1192	-0.043
Mof_H 	H 	0.1185	0.1904	0.2794	0.036
Mof_H 	H 	0.6702	0.581	0.0414	-0.053
Mof_H 	H 	0.9697	0.7118	0.3221	-0.006
Mof_H 	H 	0.6065	0.1976	0.7294	0.019
Mof_H 	H 	0.3935	0.8024	0.2706	0.019
Mof_H 	H 	0.0707	0.5796	0.1288	0.113
Mof_H 	H 	0.9281	0.8096	0.2206	0.031
Mof_H 	H 	0.5911	0.1976	0.2294	0.018
Mof_H 	H 	0.6373	0.6268	0.3808	-0.044
Mof_H 	H 	0.3668	0.9006	0.1679	0.029
Mof_H 	H 	0.5338	0.9006	0.6679	0.03
Mof_H 	H 	0.9895	0.6268	0.8808	-0.043
Mof_H 	H 	0.4089	0.8024	0.7706	0.018
Mof_H 	H 	0.3627	0.3732	0.6192	-0.044
Mof_H 	H 	0.7421	0.7118	0.8221	-0.002
Mof_H 	H 	0.5525	0.3016	0.45	-0.026
Mof_H 	H 	0.2579	0.2882	0.1779	-0.002
Mof_H 	H 	0.6332	0.0994	0.8321	0.029
Mof_H 	H 	0.7491	0.3016	0.95	-0.027
Mof_H 	H 	0.2509	0.6984	0.05	-0.027
Mof_C 	C 	0.0248	0.8108	0.2303	-0.004
Mof_C 	C 	0.8546	0.1282	0.8157	-0.15
Mof_C 	C 	0.5805	0.8648	0.6992	0.001
Mof_C 	C 	0.7931	0.0704	0.2549	0.283
Mof_C 	C 	0.7703	0.3846	0.9535	0.158
Mof_C 	C 	0.214	0.1892	0.2697	-0.008
Mof_C 	C 	0.4636	0.9302	0.4877	0.284
Mof_C 	C 	0.4666	0.9302	0.9877	0.286
Mof_C 	C 	0.0509	0.7516	0.291	0.019
Mof_C 	C 	0.8233	0.5494	0.5077	0.168
Mof_C 	C 	0.7264	0.8718	0.6843	-0.148
Mof_C 	C 	0.7157	0.1352	0.8008	0.001
Mof_C 	C 	0.6143	0.3846	0.4535	0.157
Mof_C 	C 	0.1767	0.4506	0.4923	0.168
Mof_C 	C 	0.8795	0.4556	0.9066	-0.259
Mof_C 	C 	0.5058	0.8044	0.7607	0.014
Mof_C 	C 	0.8716	0.7602	0.9747	0.634
Mof_C 	C 	0.2736	0.1282	0.3157	-0.148
Mof_C 	C 	0.7007	0.7516	0.791	0.018
Mof_C 	C 	0.9491	0.2484	0.709	0.019
Mof_C 	C 	0.4239	0.5444	0.5934	-0.26
Mof_C 	C 	0.5334	0.0698	0.0123	0.286
Mof_C 	C 	0.8192	0.942	0.6217	0.545
Mof_C 	C 	0.1205	0.5444	0.0934	-0.259
Mof_C 	C 	0.2773	0.0704	0.7549	0.28
Mof_C 	C 	0.2739	0.4506	0.9923	0.161
Mof_C 	C 	0.7227	0.9296	0.2451	0.28
Mof_C 	C 	0.1808	0.058	0.3783	0.545
Mof_C 	C 	0.7902	0.628	0.4645	-0.314
Mof_C 	C 	0.8886	0.7602	0.4747	0.631
Mof_C 	C 	0.1454	0.8718	0.1843	-0.15
Mof_C 	C 	0.9752	0.1892	0.7697	-0.004
Mof_C 	C 	0.5364	0.0698	0.5123	0.284
Mof_C 	C 	0.7261	0.5494	0.0077	0.161
Mof_C 	C 	0.4195	0.1352	0.3008	0.001
Mof_C 	C 	0.2993	0.2484	0.209	0.018
Mof_C 	C 	0.1228	0.942	0.1217	0.544
Mof_C 	C 	0.4942	0.1956	0.2393	0.014
Mof_C 	C 	0.5761	0.4556	0.4066	-0.26
Mof_C 	C 	0.3857	0.6154	0.5465	0.157
Mof_C 	C 	0.3371	0.4222	0.5881	0.2
Mof_C 	C 	0.2986	0.8044	0.2607	0.014
Mof_C 	C 	0.2297	0.6154	0.0465	0.158
Mof_C 	C 	0.1114	0.2398	0.5253	0.631
Mof_C 	C 	0.0851	0.4222	0.0881	0.198
Mof_C 	C 	0.2069	0.9296	0.7451	0.283
Mof_C 	C 	0.7014	0.1956	0.7393	0.014
Mof_C 	C 	0.2098	0.372	0.5355	-0.314
Mof_C 	C 	0.786	0.8108	0.7303	-0.008
Mof_C 	C 	0.8772	0.058	0.8783	0.544
Mof_C 	C 	0.8378	0.628	0.9645	-0.309
Mof_C 	C 	0.2843	0.8648	0.1992	0.001
Mof_C 	C 	0.1284	0.2398	0.0253	0.634
Mof_C 	C 	0.6629	0.5778	0.4119	0.2
Mof_C 	C 	0.1622	0.372	0.0355	-0.309
Mof_C 	C 	0.9149	0.5778	0.9119	0.198
Mof_N 	N 	0.1861	0.7482	0.3071	-0.198
Mof_N 	N 	0.3053	0.5704	0.9967	-0.25
Mof_N 	N 	0.6947	0.4296	0.0033	-0.25
Mof_N 	N 	0.4379	0.2518	0.1929	-0.198
Mof_N 	N 	0.2651	0.5704	0.4967	-0.25
Mof_N 	N 	0.7349	0.4296	0.5033	-0.25
Mof_N 	N 	0.5621	0.7482	0.8071	-0.198
Mof_N 	N 	0.8139	0.2518	0.6929	-0.198
Mof_O 	O 	0.1689	0.8806	0.807	-0.48
Mof_O 	O 	0.1953	0.8774	0.6757	-0.493
Mof_O 	O 	0.5328	0.8862	0.4403	-0.509
Mof_O 	O 	0.7743	0.0218	0.9264	-0.583
Mof_O 	O 	0.2257	0.9782	0.0736	-0.583
Mof_O 	O 	0.9997	0.0432	0.8787	-0.634
Mof_O 	O 	0.8337	0.8286	0.4525	-0.68
Mof_O 	O 	0.0003	0.9568	0.1213	-0.634
Mof_O 	O 	0.5327	0.8726	0.0184	-0.532
Mof_O 	O 	0.228	0.2084	0.9944	-0.645
Mof_O 	O 	0.4672	0.1138	0.5597	-0.509
Mof_O 	O 	0.6601	0.1274	0.4816	-0.531
Mof_O 	O 	0.6821	0.8774	0.1757	-0.49
Mof_O 	O 	0.6466	0.1138	0.0597	-0.508
Mof_O 	O 	0.4673	0.1274	0.9816	-0.532
Mof_O 	O 	0.0196	0.7916	0.5056	-0.642
Mof_O 	O 	0.8047	0.1226	0.3243	-0.493
Mof_O 	O 	0.9565	0.9568	0.6213	-0.638
Mof_O 	O 	0.772	0.7916	0.0056	-0.645
Mof_O 	O 	0.9804	0.2084	0.4944	-0.642
Mof_O 	O 	0.9949	0.8286	0.9525	-0.676
Mof_O 	O 	0.3399	0.8726	0.5184	-0.531
Mof_O 	O 	0.7117	0.8806	0.307	-0.48
Mof_O 	O 	0.2883	0.1194	0.693	-0.48
Mof_O 	O 	0.1663	0.1714	0.5475	-0.68
Mof_O 	O 	0.0435	0.0432	0.3787	-0.638
Mof_O 	O 	0.2475	0.0218	0.4264	-0.585
Mof_O 	O 	0.8311	0.1194	0.193	-0.48
Mof_O 	O 	0.3179	0.1226	0.8243	-0.49
Mof_O 	O 	0.7525	0.9782	0.5736	-0.585
Mof_O 	O 	0.0051	0.1714	0.0475	-0.676
Mof_O 	O 	0.3534	0.8862	0.9403	-0.508
_end
