data_functionalizedCrystal
_audit_creation_method	'EQeq! by Chris Wilmer'
_symmetry_space_group_name_H-M	'P1'
_symmetry_Int_Tables_number	1
_symmetry_cell_setting	triclinic
loop_
_symmetry_equiv_pos_as_xyz
  x,y,z
_cell_length_a	9.781
_cell_length_b	11.007
_cell_length_c	11.382
_cell_angle_alpha	80.46
_cell_angle_beta	82.42
_cell_angle_gamma	81.98
loop_
_atom_site_label
_atom_site_type_symbol
_atom_site_fract_x
_atom_site_fract_y
_atom_site_fract_z
_atom_site_charge
Mof_Sr	Sr	0.92863	0.33728	0.99727	1.233
Mof_C 	C 	0.5796	0.3931	0.8582	0.103
Mof_C 	C 	0.4613	0.3965	0.797	-0.131
Mof_C 	C 	0.3292	0.4161	0.8629	0.094
Mof_C 	C 	0.4753	0.3722	0.6773	0.055
Mof_C 	C 	0.3561	0.3639	0.6196	-0.063
Mof_H 	H 	0.2681	0.3745	0.6616	0.048
Mof_C 	C 	0.3689	0.341	0.5053	-0.077
Mof_H 	H 	0.2894	0.3359	0.4705	0.06
Mof_C 	C 	0.5007	0.3245	0.4372	0.071
Mof_C 	C 	0.619	0.3321	0.4956	-0.074
Mof_H 	H 	0.7071	0.3216	0.4538	0.059
Mof_C 	C 	0.6065	0.3541	0.6099	-0.063
Mof_H 	H 	0.6862	0.3574	0.6451	0.049
Mof_C 	C 	0.5162	0.3012	0.3172	-0.129
Mof_C 	C 	0.4003	0.2924	0.2588	0.101
Mof_C 	C 	0.6483	0.2872	0.2498	0.112
Mof_C 	C 	0.9802	0.3469	0.4643	0.104
Mof_C 	C 	0.9887	0.2428	0.5561	-0.127
Mof_C 	C 	0.9876	0.269	0.6742	0.107
Mof_C 	C 	0.9946	0.1013	0.4088	-0.072
Mof_H 	H 	0.9914	0.1689	0.3477	0.034
Mof_C 	C 	0.9946	0.1218	0.5285	0.054
Mof_C 	C 	0.001	0.016	0.6188	-0.068
Mof_H 	H 	0.0021	0.0265	0.6981	0.023
Mof_N 	N 	0.6769	0.3912	0.9051	-0.229
Mof_N 	N 	0.2206	0.4341	0.9126	-0.228
Mof_N 	N 	0.3046	0.2859	0.2133	-0.182
Mof_N 	N 	0.7555	0.2781	0.1962	-0.246
Mof_N 	N 	0.986	0.2923	0.7687	-0.246
Mof_N 	N 	0.972	0.4264	0.3865	-0.172
Mof_O 	O 	0.94559	0.55238	0.86221	-0.919
Mof_H 	H 	0.9938	0.5496	0.7959	0.366
Mof_H 	H 	0.8654	0.5893	0.8503	0.352
Mof_Sr	Sr	0.07137	0.66272	0.00273	1.234
Mof_C 	C 	0.4204	0.6069	0.1418	0.104
Mof_C 	C 	0.5387	0.6035	0.203	-0.131
Mof_C 	C 	0.6708	0.5839	0.1371	0.094
Mof_C 	C 	0.5247	0.6278	0.3227	0.055
Mof_C 	C 	0.6439	0.6361	0.3804	-0.063
Mof_H 	H 	0.7319	0.6255	0.3384	0.048
Mof_C 	C 	0.6311	0.659	0.4947	-0.077
Mof_H 	H 	0.7106	0.6641	0.5295	0.06
Mof_C 	C 	0.4993	0.6755	0.5628	0.071
Mof_C 	C 	0.381	0.6679	0.5044	-0.074
Mof_H 	H 	0.2929	0.6784	0.5462	0.059
Mof_C 	C 	0.3935	0.6459	0.3901	-0.063
Mof_H 	H 	0.3138	0.6426	0.3549	0.049
Mof_C 	C 	0.4838	0.6988	0.6828	-0.129
Mof_C 	C 	0.5997	0.7076	0.7412	0.101
Mof_C 	C 	0.3517	0.7128	0.7502	0.112
Mof_C 	C 	0.0198	0.6531	0.5357	0.104
Mof_C 	C 	0.0113	0.7572	0.4439	-0.127
Mof_C 	C 	0.0124	0.731	0.3258	0.107
Mof_C 	C 	0.0054	0.8987	0.5912	-0.072
Mof_H 	H 	0.0086	0.8311	0.6523	0.034
Mof_C 	C 	0.0054	0.8782	0.4715	0.054
Mof_C 	C 	0.999	0.984	0.3812	-0.068
Mof_H 	H 	0.9979	0.9735	0.3019	0.023
Mof_N 	N 	0.3231	0.6088	0.0949	-0.229
Mof_N 	N 	0.7794	0.5659	0.0874	-0.228
Mof_N 	N 	0.6954	0.7141	0.7867	-0.182
Mof_N 	N 	0.2445	0.7219	0.8038	-0.246
Mof_N 	N 	0.014	0.7077	0.2313	-0.246
Mof_N 	N 	0.028	0.5736	0.6135	-0.172
Mof_O 	O 	0.05441	0.44762	0.13779	-0.919
Mof_H 	H 	0.0062	0.4504	0.2041	0.366
Mof_H 	H 	0.1346	0.4107	0.1497	0.352
_end
