data_functionalizedCrystal
_audit_creation_method	'EQeq! by Chris Wilmer'
_symmetry_space_group_name_H-M	'P1'
_symmetry_Int_Tables_number	1
_symmetry_cell_setting	triclinic
loop_
_symmetry_equiv_pos_as_xyz
  x,y,z
_cell_length_a	18.807
_cell_length_b	18.807
_cell_length_c	18.807
_cell_angle_alpha	90
_cell_angle_beta	90
_cell_angle_gamma	90
loop_
_atom_site_label
_atom_site_type_symbol
_atom_site_fract_x
_atom_site_fract_y
_atom_site_fract_z
_atom_site_charge
Mof_Cu	Cu	9.46435e-33	0.61329	0.5	0.736
Mof_Cu	Cu	1.8747e-33	0.38671	0.5	0.733
Mof_Cu	Cu	0.5	-7.58965e-33	0.61329	0.736
Mof_Cu	Cu	0.5	3.79483e-33	0.38671	0.733
Mof_Cu	Cu	0.61329	0.5	-0	0.736
Mof_Cu	Cu	0.38671	0.5	-0	0.733
Mof_Cu	Cu	0.61329	0	0.5	0.737
Mof_Cu	Cu	0.38671	0	0.5	0.734
Mof_Cu	Cu	5.24476e-33	0.5	0.38671	0.734
Mof_Cu	Cu	9.88912e-33	0.5	0.61329	0.737
Mof_Cu	Cu	0.5	0.61329	-0	0.737
Mof_Cu	Cu	0.5	0.38671	-0	0.734
Mof_H 	H 	0.85021	0.7108	0.56012	0.006
Mof_H 	H 	0.14979	0.2892	0.56012	-0.016
Mof_H 	H 	0.14979	0.7108	0.43988	-0.009
Mof_H 	H 	0.85021	0.2892	0.43988	-0.003
Mof_H 	H 	0.56012	0.85021	0.7108	0.006
Mof_H 	H 	0.56012	0.14979	0.2892	-0.016
Mof_H 	H 	0.43988	0.14979	0.7108	-0.009
Mof_H 	H 	0.43988	0.85021	0.2892	-0.003
Mof_H 	H 	0.7108	0.56012	0.85021	0.006
Mof_H 	H 	0.2892	0.56012	0.14979	-0.016
Mof_H 	H 	0.7108	0.43988	0.14979	-0.009
Mof_H 	H 	0.2892	0.43988	0.85021	-0.003
Mof_H 	H 	0.7108	0.85021	0.43988	0.005
Mof_H 	H 	0.2892	0.14979	0.43988	-0.017
Mof_H 	H 	0.7108	0.14979	0.56012	-0.008
Mof_H 	H 	0.2892	0.85021	0.56012	-0.002
Mof_H 	H 	0.85021	0.56012	0.2892	-0.002
Mof_H 	H 	0.14979	0.56012	0.7108	-0.008
Mof_H 	H 	0.14979	0.43988	0.2892	-0.017
Mof_H 	H 	0.85021	0.43988	0.7108	0.005
Mof_H 	H 	0.56012	0.7108	0.14979	-0.008
Mof_H 	H 	0.56012	0.2892	0.85021	-0.002
Mof_H 	H 	0.43988	0.7108	0.85021	0.005
Mof_H 	H 	0.43988	0.2892	0.14979	-0.017
Mof_H 	H 	0.14979	0.2892	0.43988	-0.017
Mof_H 	H 	0.85021	0.7108	0.43988	0.005
Mof_H 	H 	0.85021	0.2892	0.56012	-0.002
Mof_H 	H 	0.14979	0.7108	0.56012	-0.008
Mof_H 	H 	0.43988	0.14979	0.2892	-0.017
Mof_H 	H 	0.43988	0.85021	0.7108	0.005
Mof_H 	H 	0.56012	0.85021	0.2892	-0.002
Mof_H 	H 	0.56012	0.14979	0.7108	-0.008
Mof_H 	H 	0.2892	0.43988	0.14979	-0.017
Mof_H 	H 	0.7108	0.43988	0.85021	0.005
Mof_H 	H 	0.2892	0.56012	0.85021	-0.002
Mof_H 	H 	0.7108	0.56012	0.14979	-0.008
Mof_H 	H 	0.2892	0.14979	0.56012	-0.016
Mof_H 	H 	0.7108	0.85021	0.56012	0.006
Mof_H 	H 	0.2892	0.85021	0.43988	-0.003
Mof_H 	H 	0.7108	0.14979	0.43988	-0.009
Mof_H 	H 	0.14979	0.43988	0.7108	-0.009
Mof_H 	H 	0.85021	0.43988	0.2892	-0.003
Mof_H 	H 	0.85021	0.56012	0.7108	0.006
Mof_H 	H 	0.14979	0.56012	0.2892	-0.016
Mof_H 	H 	0.43988	0.2892	0.85021	-0.003
Mof_H 	H 	0.43988	0.7108	0.14979	-0.009
Mof_H 	H 	0.56012	0.2892	0.14979	-0.016
Mof_H 	H 	0.56012	0.7108	0.85021	0.006
Mof_H 	H 	0.76895	0.76895	0.61711	0.1
Mof_H 	H 	0.23105	0.23105	0.61711	0.086
Mof_H 	H 	0.23105	0.76895	0.38289	0.093
Mof_H 	H 	0.76895	0.23105	0.38289	0.093
Mof_H 	H 	0.61711	0.76895	0.76895	0.1
Mof_H 	H 	0.61711	0.23105	0.23105	0.086
Mof_H 	H 	0.38289	0.23105	0.76895	0.093
Mof_H 	H 	0.38289	0.76895	0.23105	0.093
Mof_H 	H 	0.76895	0.61711	0.76895	0.1
Mof_H 	H 	0.23105	0.61711	0.23105	0.086
Mof_H 	H 	0.76895	0.38289	0.23105	0.093
Mof_H 	H 	0.23105	0.38289	0.76895	0.093
Mof_H 	H 	0.76895	0.76895	0.38289	0.1
Mof_H 	H 	0.23105	0.23105	0.38289	0.086
Mof_H 	H 	0.76895	0.23105	0.61711	0.093
Mof_H 	H 	0.23105	0.76895	0.61711	0.093
Mof_H 	H 	0.76895	0.61711	0.23105	0.093
Mof_H 	H 	0.23105	0.61711	0.76895	0.093
Mof_H 	H 	0.23105	0.38289	0.23105	0.086
Mof_H 	H 	0.76895	0.38289	0.76895	0.1
Mof_H 	H 	0.61711	0.76895	0.23105	0.093
Mof_H 	H 	0.61711	0.23105	0.76895	0.093
Mof_H 	H 	0.38289	0.76895	0.76895	0.1
Mof_H 	H 	0.38289	0.23105	0.23105	0.086
Mof_C 	C 	0.86124	0.66902	0.58629	0.062
Mof_C 	C 	0.13876	0.33098	0.58629	0.049
Mof_C 	C 	0.13876	0.66902	0.41371	0.049
Mof_C 	C 	0.86124	0.33098	0.41371	0.059
Mof_C 	C 	0.58629	0.86124	0.66902	0.062
Mof_C 	C 	0.58629	0.13876	0.33098	0.049
Mof_C 	C 	0.41371	0.13876	0.66902	0.049
Mof_C 	C 	0.41371	0.86124	0.33098	0.059
Mof_C 	C 	0.66902	0.58629	0.86124	0.062
Mof_C 	C 	0.33098	0.58629	0.13876	0.049
Mof_C 	C 	0.66902	0.41371	0.13876	0.049
Mof_C 	C 	0.33098	0.41371	0.86124	0.059
Mof_C 	C 	0.66902	0.86124	0.41371	0.061
Mof_C 	C 	0.33098	0.13876	0.41371	0.048
Mof_C 	C 	0.66902	0.13876	0.58629	0.05
Mof_C 	C 	0.33098	0.86124	0.58629	0.06
Mof_C 	C 	0.86124	0.58629	0.33098	0.06
Mof_C 	C 	0.13876	0.58629	0.66902	0.05
Mof_C 	C 	0.13876	0.41371	0.33098	0.048
Mof_C 	C 	0.86124	0.41371	0.66902	0.061
Mof_C 	C 	0.58629	0.66902	0.13876	0.05
Mof_C 	C 	0.58629	0.33098	0.86124	0.06
Mof_C 	C 	0.41371	0.66902	0.86124	0.061
Mof_C 	C 	0.41371	0.33098	0.13876	0.048
Mof_C 	C 	0.13876	0.33098	0.41371	0.048
Mof_C 	C 	0.86124	0.66902	0.41371	0.061
Mof_C 	C 	0.86124	0.33098	0.58629	0.06
Mof_C 	C 	0.13876	0.66902	0.58629	0.05
Mof_C 	C 	0.41371	0.13876	0.33098	0.048
Mof_C 	C 	0.41371	0.86124	0.66902	0.061
Mof_C 	C 	0.58629	0.86124	0.33098	0.06
Mof_C 	C 	0.58629	0.13876	0.66902	0.05
Mof_C 	C 	0.33098	0.41371	0.13876	0.048
Mof_C 	C 	0.66902	0.41371	0.86124	0.061
Mof_C 	C 	0.33098	0.58629	0.86124	0.06
Mof_C 	C 	0.66902	0.58629	0.13876	0.05
Mof_C 	C 	0.33098	0.13876	0.58629	0.049
Mof_C 	C 	0.66902	0.86124	0.58629	0.062
Mof_C 	C 	0.33098	0.86124	0.41371	0.059
Mof_C 	C 	0.66902	0.13876	0.41371	0.049
Mof_C 	C 	0.13876	0.41371	0.66902	0.049
Mof_C 	C 	0.86124	0.41371	0.33098	0.059
Mof_C 	C 	0.86124	0.58629	0.66902	0.062
Mof_C 	C 	0.13876	0.58629	0.33098	0.049
Mof_C 	C 	0.41371	0.33098	0.86124	0.059
Mof_C 	C 	0.41371	0.66902	0.13876	0.049
Mof_C 	C 	0.58629	0.33098	0.13876	0.049
Mof_C 	C 	0.58629	0.66902	0.86124	0.062
Mof_C 	C 	0.77667	0.68746	0.68746	0.145
Mof_C 	C 	0.83119	0.64891	0.64891	-0.085
Mof_C 	C 	0.22333	0.31254	0.68746	0.138
Mof_C 	C 	0.16881	0.35109	0.64891	-0.099
Mof_C 	C 	0.22333	0.68746	0.31254	0.138
Mof_C 	C 	0.16881	0.64891	0.35109	-0.099
Mof_C 	C 	0.77667	0.31254	0.31254	0.143
Mof_C 	C 	0.83119	0.35109	0.35109	-0.095
Mof_C 	C 	0.68746	0.77667	0.68746	0.145
Mof_C 	C 	0.64891	0.83119	0.64891	-0.085
Mof_C 	C 	0.68746	0.22333	0.31254	0.138
Mof_C 	C 	0.64891	0.16881	0.35109	-0.099
Mof_C 	C 	0.31254	0.22333	0.68746	0.138
Mof_C 	C 	0.35109	0.16881	0.64891	-0.099
Mof_C 	C 	0.31254	0.77667	0.31254	0.143
Mof_C 	C 	0.35109	0.83119	0.35109	-0.095
Mof_C 	C 	0.68746	0.68746	0.77667	0.145
Mof_C 	C 	0.64891	0.64891	0.83119	-0.085
Mof_C 	C 	0.31254	0.68746	0.22333	0.138
Mof_C 	C 	0.35109	0.64891	0.16881	-0.099
Mof_C 	C 	0.68746	0.31254	0.22333	0.138
Mof_C 	C 	0.64891	0.35109	0.16881	-0.099
Mof_C 	C 	0.31254	0.31254	0.77667	0.143
Mof_C 	C 	0.35109	0.35109	0.83119	-0.095
Mof_C 	C 	0.68746	0.77667	0.31254	0.144
Mof_C 	C 	0.64891	0.83119	0.35109	-0.09
Mof_C 	C 	0.31254	0.22333	0.31254	0.136
Mof_C 	C 	0.35109	0.16881	0.35109	-0.104
Mof_C 	C 	0.68746	0.22333	0.68746	0.139
Mof_C 	C 	0.64891	0.16881	0.64891	-0.094
Mof_C 	C 	0.31254	0.77667	0.68746	0.144
Mof_C 	C 	0.35109	0.83119	0.64891	-0.09
Mof_C 	C 	0.77667	0.68746	0.31254	0.144
Mof_C 	C 	0.83119	0.64891	0.35109	-0.09
Mof_C 	C 	0.22333	0.68746	0.68746	0.139
Mof_C 	C 	0.16881	0.64891	0.64891	-0.094
Mof_C 	C 	0.22333	0.31254	0.31254	0.136
Mof_C 	C 	0.16881	0.35109	0.35109	-0.104
Mof_C 	C 	0.77667	0.31254	0.68746	0.144
Mof_C 	C 	0.83119	0.35109	0.64891	-0.09
Mof_C 	C 	0.68746	0.68746	0.22333	0.139
Mof_C 	C 	0.64891	0.64891	0.16881	-0.094
Mof_C 	C 	0.68746	0.31254	0.77667	0.144
Mof_C 	C 	0.64891	0.35109	0.83119	-0.09
Mof_C 	C 	0.31254	0.68746	0.77667	0.144
Mof_C 	C 	0.35109	0.64891	0.83119	-0.09
Mof_C 	C 	0.31254	0.31254	0.22333	0.136
Mof_C 	C 	0.35109	0.35109	0.16881	-0.104
Mof_C 	C 	0.75086	0.75086	0.66067	-0.188
Mof_C 	C 	0.24914	0.24914	0.66067	-0.206
Mof_C 	C 	0.24914	0.75086	0.33933	-0.205
Mof_C 	C 	0.75086	0.24914	0.33933	-0.205
Mof_C 	C 	0.66067	0.75086	0.75086	-0.188
Mof_C 	C 	0.66067	0.24914	0.24914	-0.206
Mof_C 	C 	0.33933	0.24914	0.75086	-0.205
Mof_C 	C 	0.33933	0.75086	0.24914	-0.205
Mof_C 	C 	0.75086	0.66067	0.75086	-0.188
Mof_C 	C 	0.24914	0.66067	0.24914	-0.206
Mof_C 	C 	0.75086	0.33933	0.24914	-0.205
Mof_C 	C 	0.24914	0.33933	0.75086	-0.205
Mof_C 	C 	0.75086	0.75086	0.33933	-0.196
Mof_C 	C 	0.24914	0.24914	0.33933	-0.213
Mof_C 	C 	0.75086	0.24914	0.66067	-0.197
Mof_C 	C 	0.24914	0.75086	0.66067	-0.197
Mof_C 	C 	0.75086	0.66067	0.24914	-0.197
Mof_C 	C 	0.24914	0.66067	0.75086	-0.197
Mof_C 	C 	0.24914	0.33933	0.24914	-0.213
Mof_C 	C 	0.75086	0.33933	0.75086	-0.196
Mof_C 	C 	0.66067	0.75086	0.24914	-0.197
Mof_C 	C 	0.66067	0.24914	0.75086	-0.197
Mof_C 	C 	0.33933	0.75086	0.75086	-0.196
Mof_C 	C 	0.33933	0.24914	0.24914	-0.213
Mof_N 	N 	0.90987	0.61883	0.5677	-0.185
Mof_N 	N 	0.09013	0.38117	0.5677	-0.219
Mof_N 	N 	0.09013	0.61883	0.4323	-0.217
Mof_N 	N 	0.90987	0.38117	0.4323	-0.188
Mof_N 	N 	0.5677	0.90987	0.61883	-0.185
Mof_N 	N 	0.5677	0.09013	0.38117	-0.219
Mof_N 	N 	0.4323	0.09013	0.61883	-0.217
Mof_N 	N 	0.4323	0.90987	0.38117	-0.188
Mof_N 	N 	0.61883	0.5677	0.90987	-0.185
Mof_N 	N 	0.38117	0.5677	0.09013	-0.219
Mof_N 	N 	0.61883	0.4323	0.09013	-0.217
Mof_N 	N 	0.38117	0.4323	0.90987	-0.188
Mof_N 	N 	0.61883	0.90987	0.4323	-0.186
Mof_N 	N 	0.38117	0.09013	0.4323	-0.22
Mof_N 	N 	0.61883	0.09013	0.5677	-0.216
Mof_N 	N 	0.38117	0.90987	0.5677	-0.187
Mof_N 	N 	0.90987	0.5677	0.38117	-0.187
Mof_N 	N 	0.09013	0.5677	0.61883	-0.216
Mof_N 	N 	0.09013	0.4323	0.38117	-0.22
Mof_N 	N 	0.90987	0.4323	0.61883	-0.186
Mof_N 	N 	0.5677	0.61883	0.09013	-0.216
Mof_N 	N 	0.5677	0.38117	0.90987	-0.187
Mof_N 	N 	0.4323	0.61883	0.90987	-0.186
Mof_N 	N 	0.4323	0.38117	0.09013	-0.22
Mof_N 	N 	0.09013	0.38117	0.4323	-0.22
Mof_N 	N 	0.90987	0.61883	0.4323	-0.186
Mof_N 	N 	0.90987	0.38117	0.5677	-0.187
Mof_N 	N 	0.09013	0.61883	0.5677	-0.216
Mof_N 	N 	0.4323	0.09013	0.38117	-0.22
Mof_N 	N 	0.4323	0.90987	0.61883	-0.186
Mof_N 	N 	0.5677	0.90987	0.38117	-0.187
Mof_N 	N 	0.5677	0.09013	0.61883	-0.216
Mof_N 	N 	0.38117	0.4323	0.09013	-0.22
Mof_N 	N 	0.61883	0.4323	0.90987	-0.186
Mof_N 	N 	0.38117	0.5677	0.90987	-0.187
Mof_N 	N 	0.61883	0.5677	0.09013	-0.216
Mof_N 	N 	0.38117	0.09013	0.5677	-0.219
Mof_N 	N 	0.61883	0.90987	0.5677	-0.185
Mof_N 	N 	0.38117	0.90987	0.4323	-0.188
Mof_N 	N 	0.61883	0.09013	0.4323	-0.217
Mof_N 	N 	0.09013	0.4323	0.61883	-0.217
Mof_N 	N 	0.90987	0.4323	0.38117	-0.188
Mof_N 	N 	0.90987	0.5677	0.61883	-0.185
Mof_N 	N 	0.09013	0.5677	0.38117	-0.219
Mof_N 	N 	0.4323	0.38117	0.90987	-0.188
Mof_N 	N 	0.4323	0.61883	0.09013	-0.217
Mof_N 	N 	0.5677	0.38117	0.09013	-0.219
Mof_N 	N 	0.5677	0.61883	0.90987	-0.185
_end
