data_functionalizedCrystal
_audit_creation_method	'EQeq! by Chris Wilmer'
_symmetry_space_group_name_H-M	'P1'
_symmetry_Int_Tables_number	1
_symmetry_cell_setting	triclinic
loop_
_symmetry_equiv_pos_as_xyz
  x,y,z
_cell_length_a	17.7101
_cell_length_b	13.2378
_cell_length_c	17.869
_cell_angle_alpha	90
_cell_angle_beta	90.847
_cell_angle_gamma	90
loop_
_atom_site_label
_atom_site_type_symbol
_atom_site_fract_x
_atom_site_fract_y
_atom_site_fract_z
_atom_site_charge
Mof_N 	N 	0.579	0.3173	0.9799	-0.058
Mof_C 	C 	0.5177	0.2851	0.9443	-0.001
Mof_H 	H 	0.4964	0.2197	0.9496	0.162
Mof_N 	N 	0.4894	0.3584	0.8994	-0.064
Mof_C 	C 	0.5361	0.4445	0.909	0.006
Mof_H 	H 	0.5296	0.5092	0.8868	0.027
Mof_C 	C 	0.5903	0.4157	0.955	0.028
Mof_H 	H 	0.632	0.4568	0.9695	0.012
Mof_C 	C 	0.8803	0.6485	0.0287	0.157
Mof_C 	C 	0.8021	0.6444	0.0277	-0.179
Mof_H 	H 	0.7737	0.6996	0.0081	0.096
Mof_C 	C 	0.7654	0.561	0.0549	0.083
Mof_H 	H 	0.7118	0.5581	0.0531	0.014
Mof_C 	C 	0.8066	0.48	0.0854	-0.141
Mof_C 	C 	0.8844	0.4843	0.0851	0.08
Mof_H 	H 	0.913	0.4299	0.1053	0.019
Mof_C 	C 	0.9214	0.5677	0.0553	-0.177
Mof_H 	H 	0.975	0.5687	0.0535	0.095
Mof_C 	C 	0.7647	0.3924	0.1184	0.354
Mof_C 	C 	0.9551	0.7314	0.9315	0.152
Mof_C 	C 	0.9362	0.6606	0.8788	-0.174
Mof_H 	H 	0.8984	0.6119	0.8896	0.092
Mof_C 	C 	0.971	0.6585	0.8102	0.069
Mof_H 	H 	0.9561	0.6102	0.7735	0.016
Mof_C 	C 	0.0285	0.728	0.7949	-0.121
Mof_C 	C 	0.0494	0.7976	0.8494	0.075
Mof_H 	H 	0.0893	0.8437	0.8401	0.028
Mof_C 	C 	0.0131	0.8003	0.9162	-0.166
Mof_H 	H 	0.0273	0.8492	0.9527	0.095
Mof_C 	C 	0.0639	0.7281	0.7194	0.313
Mof_C 	C 	0.8846	0.831	0.0238	0.156
Mof_C 	C 	0.8753	0.8503	0.1004	-0.177
Mof_H 	H 	0.8947	0.8043	0.1366	0.098
Mof_C 	C 	0.8385	0.9348	0.1223	0.082
Mof_H 	H 	0.8334	0.9481	0.1743	0.019
Mof_C 	C 	0.8083	0.0019	0.0711	-0.139
Mof_C 	C 	0.8195	0.9843	0.9959	0.081
Mof_H 	H 	0.8005	0.0308	0.9597	0.017
Mof_C 	C 	0.8581	0.8996	0.973	-0.184
Mof_H 	H 	0.8664	0.889	0.9212	0.097
Mof_C 	C 	0.7613	0.0899	0.0982	0.351
Mof_C 	C 	0.42	0.3514	0.8559	0.09
Mof_C 	C 	0.396	0.4364	0.8165	-0.096
Mof_H 	H 	0.4251	0.4967	0.8182	0.081
Mof_C 	C 	0.3301	0.433	0.775	-0.023
Mof_H 	H 	0.3141	0.4916	0.7484	0.056
Mof_C 	C 	0.2863	0.3464	0.771	0.003
Mof_C 	C 	0.3109	0.2613	0.8095	-0.028
Mof_H 	H 	0.2821	0.2008	0.807	0.044
Mof_C 	C 	0.377	0.264	0.8517	-0.094
Mof_H 	H 	0.3931	0.2053	0.878	0.067
Mof_Cd	Cd	0.63006	0.23642	0.08312	0.439
Mof_N 	N 	0.9183	0.7366	0.0014	-0.18
Mof_O 	O 	0.7009	0.3744	0.091	-0.301
Mof_O 	O 	0.79559	0.3467	0.17102	-0.299
Mof_O 	O 	0.12227	0.7834	0.71041	-0.293
Mof_O 	O 	0.0349	0.6795	0.6658	-0.279
Mof_O 	O 	0.7623	0.1074	0.1652	-0.296
Mof_O 	O 	0.7247	0.1379	0.0487	-0.298
Mof_N 	N 	0.5768	0.306	0.9822	-0.039
Mof_C 	C 	0.5066	0.295	0.958	0.048
Mof_H 	H 	0.4701	0.254	0.9818	-0.037
Mof_N 	N 	0.4928	0.3498	0.8944	-0.077
Mof_C 	C 	0.5613	0.3974	0.8792	0.012
Mof_H 	H 	0.5705	0.4415	0.8384	0.026
Mof_C 	C 	0.6106	0.3707	0.9306	-0.033
Mof_H 	H 	0.6618	0.3921	0.9327	0.043
Mof_N 	N 	0.5694	0.3136	0.99	-0.015
Mof_C 	C 	0.5178	0.2815	0.9416	0.002
Mof_H 	H 	0.5086	0.2127	0.9293	-0.125
Mof_N 	N 	0.4797	0.3615	0.9119	0.035
Mof_C 	C 	0.5098	0.4494	0.9451	-0.062
Mof_H 	H 	0.4935	0.517	0.9372	0.054
Mof_C 	C 	0.5643	0.419	0.9889	-0.017
Mof_H 	H 	0.5967	0.4628	0.0167	0.039
Mof_N 	N 	0.921	0.3173	0.5201	-0.059
Mof_C 	C 	0.9823	0.2851	0.5557	-0.002
Mof_H 	H 	0.0036	0.2197	0.5504	0.176
Mof_N 	N 	0.0106	0.3584	0.6006	-0.064
Mof_C 	C 	0.9639	0.4445	0.591	0.006
Mof_H 	H 	0.9704	0.5092	0.6132	0.026
Mof_C 	C 	0.9097	0.4157	0.545	0.029
Mof_H 	H 	0.868	0.4568	0.5305	0.012
Mof_C 	C 	0.6197	0.6485	0.4713	0.157
Mof_C 	C 	0.6979	0.6444	0.4723	-0.179
Mof_H 	H 	0.7263	0.6996	0.4919	0.096
Mof_C 	C 	0.7346	0.561	0.4451	0.083
Mof_H 	H 	0.7882	0.5581	0.4469	0.014
Mof_C 	C 	0.6934	0.48	0.4146	-0.141
Mof_C 	C 	0.6156	0.4843	0.4149	0.08
Mof_H 	H 	0.587	0.4299	0.3947	0.018
Mof_C 	C 	0.5786	0.5677	0.4447	-0.178
Mof_H 	H 	0.525	0.5687	0.4465	0.095
Mof_C 	C 	0.7353	0.3924	0.3816	0.354
Mof_C 	C 	0.5449	0.7314	0.5685	0.156
Mof_C 	C 	0.5638	0.6606	0.6212	-0.177
Mof_H 	H 	0.6016	0.6119	0.6104	0.093
Mof_C 	C 	0.529	0.6585	0.6898	0.073
Mof_H 	H 	0.5439	0.6102	0.7265	0.015
Mof_C 	C 	0.4715	0.728	0.7051	-0.124
Mof_C 	C 	0.4506	0.7976	0.6506	0.079
Mof_H 	H 	0.4107	0.8437	0.6599	0.027
Mof_C 	C 	0.4869	0.8003	0.5838	-0.171
Mof_H 	H 	0.4727	0.8492	0.5473	0.096
Mof_C 	C 	0.4361	0.7281	0.7806	0.314
Mof_C 	C 	0.6154	0.831	0.4762	0.158
Mof_C 	C 	0.6247	0.8503	0.3996	-0.179
Mof_H 	H 	0.6053	0.8043	0.3634	0.099
Mof_C 	C 	0.6615	0.9348	0.3777	0.085
Mof_H 	H 	0.6666	0.9481	0.3257	0.018
Mof_C 	C 	0.6917	0.0019	0.4289	-0.142
Mof_C 	C 	0.6805	0.9843	0.5041	0.084
Mof_H 	H 	0.6995	0.0308	0.5403	0.017
Mof_C 	C 	0.6419	0.8996	0.527	-0.185
Mof_H 	H 	0.6336	0.889	0.5788	0.097
Mof_C 	C 	0.7387	0.0899	0.4018	0.352
Mof_C 	C 	0.08	0.3514	0.6441	0.09
Mof_C 	C 	0.104	0.4364	0.6835	-0.096
Mof_H 	H 	0.0749	0.4967	0.6818	0.081
Mof_C 	C 	0.1699	0.433	0.725	-0.023
Mof_H 	H 	0.1859	0.4916	0.7516	0.056
Mof_C 	C 	0.2137	0.3464	0.729	0.003
Mof_C 	C 	0.1891	0.2613	0.6905	-0.028
Mof_H 	H 	0.2179	0.2008	0.693	0.044
Mof_C 	C 	0.123	0.264	0.6483	-0.094
Mof_H 	H 	0.1069	0.2053	0.622	0.067
Mof_Cd	Cd	0.86994	0.23642	0.41688	0.439
Mof_N 	N 	0.5817	0.7366	0.4986	-0.181
Mof_O 	O 	0.7991	0.3744	0.409	-0.301
Mof_O 	O 	0.70441	0.3467	0.32898	-0.299
Mof_O 	O 	0.37773	0.7834	0.78959	-0.294
Mof_O 	O 	0.4651	0.6795	0.8342	-0.279
Mof_O 	O 	0.7377	0.1074	0.3348	-0.296
Mof_O 	O 	0.7753	0.1379	0.4513	-0.299
Mof_N 	N 	0.9232	0.306	0.5178	-0.039
Mof_C 	C 	0.9934	0.295	0.542	0.05
Mof_H 	H 	0.0299	0.254	0.5182	-0.041
Mof_N 	N 	0.0072	0.3498	0.6056	-0.078
Mof_C 	C 	0.9387	0.3974	0.6208	0.013
Mof_H 	H 	0.9295	0.4415	0.6616	0.025
Mof_C 	C 	0.8894	0.3707	0.5694	-0.034
Mof_H 	H 	0.8382	0.3921	0.5673	0.044
Mof_N 	N 	0.9306	0.3136	0.51	-0.014
Mof_C 	C 	0.9822	0.2815	0.5584	0.002
Mof_H 	H 	0.9914	0.2127	0.5707	-0.137
Mof_N 	N 	0.0203	0.3615	0.5881	0.035
Mof_C 	C 	0.9902	0.4494	0.5549	-0.063
Mof_H 	H 	0.0065	0.517	0.5628	0.055
Mof_C 	C 	0.9357	0.419	0.5111	-0.017
Mof_H 	H 	0.9033	0.4628	0.4833	0.039
Mof_N 	N 	0.421	0.6827	0.0201	-0.059
Mof_C 	C 	0.4823	0.7149	0.0557	-0.002
Mof_H 	H 	0.5036	0.7803	0.0504	0.162
Mof_N 	N 	0.5106	0.6416	0.1006	-0.064
Mof_C 	C 	0.4639	0.5555	0.091	0.006
Mof_H 	H 	0.4704	0.4908	0.1132	0.027
Mof_C 	C 	0.4097	0.5843	0.045	0.028
Mof_H 	H 	0.368	0.5432	0.0305	0.012
Mof_C 	C 	0.1197	0.3515	0.9713	0.157
Mof_C 	C 	0.1979	0.3556	0.9723	-0.179
Mof_H 	H 	0.2263	0.3004	0.9919	0.096
Mof_C 	C 	0.2346	0.439	0.9451	0.083
Mof_H 	H 	0.2882	0.4419	0.9469	0.014
Mof_C 	C 	0.1934	0.52	0.9146	-0.141
Mof_C 	C 	0.1156	0.5157	0.9149	0.08
Mof_H 	H 	0.087	0.5701	0.8947	0.019
Mof_C 	C 	0.0786	0.4323	0.9447	-0.177
Mof_H 	H 	0.025	0.4313	0.9465	0.095
Mof_C 	C 	0.2353	0.6076	0.8816	0.354
Mof_C 	C 	0.0449	0.2686	0.0685	0.152
Mof_C 	C 	0.0638	0.3394	0.1212	-0.174
Mof_H 	H 	0.1016	0.3881	0.1104	0.092
Mof_C 	C 	0.029	0.3415	0.1898	0.069
Mof_H 	H 	0.0439	0.3898	0.2265	0.016
Mof_C 	C 	0.9715	0.272	0.2051	-0.121
Mof_C 	C 	0.9506	0.2024	0.1506	0.075
Mof_H 	H 	0.9107	0.1563	0.1599	0.028
Mof_C 	C 	0.9869	0.1997	0.0838	-0.166
Mof_H 	H 	0.9727	0.1508	0.0473	0.095
Mof_C 	C 	0.9361	0.2719	0.2806	0.313
Mof_C 	C 	0.1154	0.169	0.9762	0.156
Mof_C 	C 	0.1247	0.1497	0.8996	-0.177
Mof_H 	H 	0.1053	0.1957	0.8634	0.098
Mof_C 	C 	0.1615	0.0652	0.8777	0.082
Mof_H 	H 	0.1666	0.0519	0.8257	0.019
Mof_C 	C 	0.1917	0.9981	0.9289	-0.139
Mof_C 	C 	0.1805	0.0157	0.0041	0.081
Mof_H 	H 	0.1995	0.9692	0.0403	0.017
Mof_C 	C 	0.1419	0.1004	0.027	-0.184
Mof_H 	H 	0.1336	0.111	0.0788	0.097
Mof_C 	C 	0.2387	0.9101	0.9018	0.351
Mof_C 	C 	0.58	0.6486	0.1441	0.09
Mof_C 	C 	0.604	0.5636	0.1835	-0.096
Mof_H 	H 	0.5749	0.5033	0.1818	0.081
Mof_C 	C 	0.6699	0.567	0.225	-0.023
Mof_H 	H 	0.6859	0.5084	0.2516	0.056
Mof_C 	C 	0.7137	0.6536	0.229	0.003
Mof_C 	C 	0.6891	0.7387	0.1905	-0.028
Mof_H 	H 	0.7179	0.7992	0.193	0.044
Mof_C 	C 	0.623	0.736	0.1483	-0.094
Mof_H 	H 	0.6069	0.7947	0.122	0.067
Mof_Cd	Cd	0.36994	0.76358	0.91688	0.439
Mof_N 	N 	0.0817	0.2634	0.9986	-0.18
Mof_O 	O 	0.2991	0.6256	0.909	-0.301
Mof_O 	O 	0.20441	0.6533	0.82898	-0.299
Mof_O 	O 	0.87773	0.2166	0.28959	-0.293
Mof_O 	O 	0.9651	0.3205	0.3342	-0.279
Mof_O 	O 	0.2377	0.8926	0.8348	-0.296
Mof_O 	O 	0.2753	0.8621	0.9513	-0.298
Mof_N 	N 	0.4232	0.694	0.0178	-0.039
Mof_C 	C 	0.4934	0.705	0.042	0.048
Mof_H 	H 	0.5299	0.746	0.0182	-0.037
Mof_N 	N 	0.5072	0.6502	0.1056	-0.077
Mof_C 	C 	0.4387	0.6026	0.1208	0.012
Mof_H 	H 	0.4295	0.5585	0.1616	0.026
Mof_C 	C 	0.3894	0.6293	0.0694	-0.033
Mof_H 	H 	0.3382	0.6079	0.0673	0.043
Mof_N 	N 	0.4306	0.6864	0.01	-0.015
Mof_C 	C 	0.4822	0.7185	0.0584	0.002
Mof_H 	H 	0.4914	0.7873	0.0707	-0.125
Mof_N 	N 	0.5203	0.6385	0.0881	0.035
Mof_C 	C 	0.4902	0.5506	0.0549	-0.062
Mof_H 	H 	0.5065	0.483	0.0628	0.054
Mof_C 	C 	0.4357	0.581	0.0111	-0.017
Mof_H 	H 	0.4033	0.5372	0.9833	0.039
Mof_N 	N 	0.079	0.6827	0.4799	-0.059
Mof_C 	C 	0.0177	0.7149	0.4443	-0.002
Mof_H 	H 	0.9964	0.7803	0.4496	0.176
Mof_N 	N 	0.9894	0.6416	0.3994	-0.064
Mof_C 	C 	0.0361	0.5555	0.409	0.006
Mof_H 	H 	0.0296	0.4908	0.3868	0.026
Mof_C 	C 	0.0903	0.5843	0.455	0.029
Mof_H 	H 	0.132	0.5432	0.4695	0.012
Mof_C 	C 	0.3803	0.3515	0.5287	0.157
Mof_C 	C 	0.3021	0.3556	0.5277	-0.179
Mof_H 	H 	0.2737	0.3004	0.5081	0.096
Mof_C 	C 	0.2654	0.439	0.5549	0.083
Mof_H 	H 	0.2118	0.4419	0.5531	0.014
Mof_C 	C 	0.3066	0.52	0.5854	-0.141
Mof_C 	C 	0.3844	0.5157	0.5851	0.08
Mof_H 	H 	0.413	0.5701	0.6053	0.018
Mof_C 	C 	0.4214	0.4323	0.5553	-0.178
Mof_H 	H 	0.475	0.4313	0.5535	0.095
Mof_C 	C 	0.2647	0.6076	0.6184	0.354
Mof_C 	C 	0.4551	0.2686	0.4315	0.156
Mof_C 	C 	0.4362	0.3394	0.3788	-0.177
Mof_H 	H 	0.3984	0.3881	0.3896	0.093
Mof_C 	C 	0.471	0.3415	0.3102	0.073
Mof_H 	H 	0.4561	0.3898	0.2735	0.015
Mof_C 	C 	0.5285	0.272	0.2949	-0.124
Mof_C 	C 	0.5494	0.2024	0.3494	0.079
Mof_H 	H 	0.5893	0.1563	0.3401	0.027
Mof_C 	C 	0.5131	0.1997	0.4162	-0.171
Mof_H 	H 	0.5273	0.1508	0.4527	0.096
Mof_C 	C 	0.5639	0.2719	0.2194	0.314
Mof_C 	C 	0.3846	0.169	0.5238	0.158
Mof_C 	C 	0.3753	0.1497	0.6004	-0.179
Mof_H 	H 	0.3947	0.1957	0.6366	0.099
Mof_C 	C 	0.3385	0.0652	0.6223	0.085
Mof_H 	H 	0.3334	0.0519	0.6743	0.018
Mof_C 	C 	0.3083	0.9981	0.5711	-0.142
Mof_C 	C 	0.3195	0.0157	0.4959	0.084
Mof_H 	H 	0.3005	0.9692	0.4597	0.017
Mof_C 	C 	0.3581	0.1004	0.473	-0.185
Mof_H 	H 	0.3664	0.111	0.4212	0.097
Mof_C 	C 	0.2613	0.9101	0.5982	0.352
Mof_C 	C 	0.92	0.6486	0.3559	0.09
Mof_C 	C 	0.896	0.5636	0.3165	-0.096
Mof_H 	H 	0.9251	0.5033	0.3182	0.081
Mof_C 	C 	0.8301	0.567	0.275	-0.023
Mof_H 	H 	0.8141	0.5084	0.2484	0.056
Mof_C 	C 	0.7863	0.6536	0.271	0.003
Mof_C 	C 	0.8109	0.7387	0.3095	-0.028
Mof_H 	H 	0.7821	0.7992	0.307	0.044
Mof_C 	C 	0.877	0.736	0.3517	-0.094
Mof_H 	H 	0.8931	0.7947	0.378	0.067
Mof_Cd	Cd	0.13006	0.76358	0.58312	0.439
Mof_N 	N 	0.4183	0.2634	0.5014	-0.181
Mof_O 	O 	0.2009	0.6256	0.591	-0.301
Mof_O 	O 	0.29559	0.6533	0.67102	-0.299
Mof_O 	O 	0.62227	0.2166	0.21041	-0.294
Mof_O 	O 	0.5349	0.3205	0.1658	-0.279
Mof_O 	O 	0.2623	0.8926	0.6652	-0.296
Mof_O 	O 	0.2247	0.8621	0.5487	-0.299
Mof_N 	N 	0.0768	0.694	0.4822	-0.039
Mof_C 	C 	0.0066	0.705	0.458	0.05
Mof_H 	H 	0.9701	0.746	0.4818	-0.041
Mof_N 	N 	0.9928	0.6502	0.3944	-0.078
Mof_C 	C 	0.0613	0.6026	0.3792	0.013
Mof_H 	H 	0.0705	0.5585	0.3384	0.025
Mof_C 	C 	0.1106	0.6293	0.4306	-0.034
Mof_H 	H 	0.1618	0.6079	0.4327	0.044
Mof_N 	N 	0.0694	0.6864	0.49	-0.014
Mof_C 	C 	0.0178	0.7185	0.4416	0.002
Mof_H 	H 	0.0086	0.7873	0.4293	-0.137
Mof_N 	N 	0.9797	0.6385	0.4119	0.035
Mof_C 	C 	0.0098	0.5506	0.4451	-0.063
Mof_H 	H 	0.9935	0.483	0.4372	0.055
Mof_C 	C 	0.0643	0.581	0.4889	-0.017
Mof_H 	H 	0.0967	0.5372	0.5167	0.039
Mof_Cd	Cd	0.75	0.23092	0.25	0.523
Mof_Cd	Cd	0.25	0.76908	0.75	0.523
_end
