data_functionalizedCrystal
_audit_creation_method	'EQeq! by Chris Wilmer'
_symmetry_space_group_name_H-M	'P1'
_symmetry_Int_Tables_number	1
_symmetry_cell_setting	triclinic
loop_
_symmetry_equiv_pos_as_xyz
  x,y,z
_cell_length_a	12.072
_cell_length_b	14.124
_cell_length_c	14.338
_cell_angle_alpha	104.16
_cell_angle_beta	104.51
_cell_angle_gamma	114.4
loop_
_atom_site_label
_atom_site_type_symbol
_atom_site_fract_x
_atom_site_fract_y
_atom_site_fract_z
_atom_site_charge
Mof_C 	C 	0.2951	0.8058	0.8253	0.014
Mof_C 	C 	0.3297	0.7887	0.9171	-0.038
Mof_H 	H 	0.3715	0.849	0.9818	0.048
Mof_C 	C 	0.3019	0.6813	0.9122	-0.017
Mof_H 	H 	0.3251	0.6699	0.9737	0.054
Mof_C 	C 	0.2394	0.5912	0.8155	-0.034
Mof_C 	C 	0.2048	0.6083	0.7237	-0.026
Mof_H 	H 	0.163	0.548	0.659	0.043
Mof_C 	C 	0.2326	0.7157	0.7285	-0.052
Mof_H 	H 	0.2094	0.7272	0.6671	0.047
Mof_C 	C 	0.2026	0.9427	0.9491	0.034
Mof_C 	C 	0.2455	0.908	0.0254	0.121
Mof_H 	H 	0.3268	0.9111	0.04	-0.016
Mof_C 	C 	0.1656	0.8658	0.0851	-0.22
Mof_H 	H 	0.1974	0.8453	0.1383	0.117
Mof_C 	C 	0.0513	0.8583	0.0613	-0.018
Mof_C 	C 	0.0032	0.8943	0.0034	-0.129
Mof_H 	H 	0.9253	0.8944	0.9998	0.084
Mof_C 	C 	0.0828	0.9433	0.931	0.013
Mof_H 	H 	0.0507	0.9688	0.8827	0.027
Mof_C 	C 	0.4626	0.2682	0.8658	0.29
Mof_C 	C 	0.4125	0.1474	0.8533	-0.058
Mof_C 	C 	0.4551	0.0837	0.7975	-0.018
Mof_H 	H 	0.5114	0.115	0.766	0.051
Mof_C 	C 	0.413	0.9739	0.7894	-0.064
Mof_H 	H 	0.4402	0.9315	0.7509	0.05
Mof_C 	C 	0.3306	0.9249	0.8376	-0.003
Mof_C 	C 	0.2878	0.9885	0.8934	-0.02
Mof_C 	C 	0.3277	0.0994	0.8984	-0.039
Mof_H 	H 	0.2962	0.1408	0.9327	0.059
Mof_C 	C 	0.967	0.8119	0.1191	0.311
Mof_C 	C 	0.2207	0.4782	0.8114	0.299
Mof_C 	C 	0.0913	0.9923	0.6252	0.073
Mof_C 	C 	0.0024	0.9286	0.6596	-0.089
Mof_H 	H 	0.9829	0.9623	0.7127	0.07
Mof_C 	C 	0.9427	0.8112	0.6114	-0.03
Mof_H 	H 	0.8824	0.7656	0.6331	0.038
Mof_C 	C 	0.9714	0.7606	0.5312	-0.019
Mof_H 	H 	0.9297	0.6821	0.5007	0.041
Mof_C 	C 	0.0587	0.8232	0.4969	-0.09
Mof_H 	H 	0.0775	0.7893	0.4435	0.077
Mof_C 	C 	0.1189	0.9403	0.5448	0.059
Mof_C 	C 	0.2338	0.1262	0.5967	0.085
Mof_C 	C 	0.3217	0.2387	0.6063	0.057
Mof_C 	C 	0.41	0.2767	0.5641	-0.09
Mof_H 	H 	0.4282	0.2308	0.5194	0.066
Mof_C 	C 	0.3934	0.4207	0.6763	0.022
Mof_H 	H 	0.4009	0.4875	0.7161	0.033
Mof_C 	C 	0.2555	0.0079	0.443	-0.141
Mof_H 	H 	0.2686	0.0681	0.4181	0.077
Mof_H 	H 	0.1869	0.9371	0.385	0.099
Mof_C 	C 	0.3841	0.0048	0.4747	0.06
Mof_C 	C 	0.4095	0.9531	0.5417	-0.056
Mof_H 	H 	0.3485	0.9201	0.5691	0.058
Mof_C 	C 	0.4728	0.0485	0.4329	-0.07
Mof_H 	H 	0.4541	0.0804	0.386	0.049
Mof_Cd	Cd	0.1879	0.26569	0.77799	0.453
Mof_N 	N 	0.3145	0.3242	0.6732	-0.127
Mof_N 	N 	0.1651	0.1089	0.6564	-0.149
Mof_N 	N 	0.2086	0.0255	0.5269	-0.112
Mof_O 	O 	0.4023	0.3145	0.9009	-0.291
Mof_O 	O 	0.5586	0.3174	0.844	-0.241
Mof_O 	O 	0.0151	0.8484	0.2129	-0.295
Mof_O 	O 	0.8507	0.738	0.0684	-0.278
Mof_O 	O 	0.309	0.472	0.8752	-0.288
Mof_O 	O 	0.1191	0.3918	0.743	-0.277
Mof_S 	S 	0.4836	0.418	0.6023	0.01
Mof_C 	C 	0.2043	0.9435	0.9514	0.032
Mof_C 	C 	0.2504	0.9988	0.0559	-0.243
Mof_H 	H 	0.3325	0.065	0.0918	0.106
Mof_C 	C 	0.1722	0.9549	0.1102	0.191
Mof_H 	H 	0.2056	0.9926	0.1825	-0.032
Mof_C 	C 	0.0486	0.8585	0.0604	-0.013
Mof_C 	C 	0.0087	0.8022	0.9488	0.094
Mof_H 	H 	0.9277	0.7351	0.9112	0.012
Mof_C 	C 	0.086	0.844	0.8958	-0.159
Mof_H 	H 	0.0583	0.8054	0.8242	0.083
Mof_C 	C 	0.2975	0.8114	0.8349	0.022
Mof_C 	C 	0.4014	0.7923	0.8777	-0.063
Mof_H 	H 	0.4882	0.8528	0.9102	0.051
Mof_C 	C 	0.3784	0.688	0.8728	-0.008
Mof_H 	H 	0.4491	0.6788	0.9025	0.041
Mof_C 	C 	0.2495	0.5946	0.8239	-0.028
Mof_C 	C 	0.1462	0.6135	0.7865	0.003
Mof_H 	H 	0.0593	0.5538	0.7579	0.04
Mof_C 	C 	0.1707	0.7228	0.7909	-0.055
Mof_H 	H 	0.1003	0.7334	0.7638	0.043
Mof_C 	C 	0.7049	0.1942	0.1747	0.013
Mof_C 	C 	0.6703	0.2113	0.0829	-0.055
Mof_H 	H 	0.6285	0.151	0.0182	0.044
Mof_C 	C 	0.6981	0.3187	0.0878	0.006
Mof_H 	H 	0.6749	0.3301	0.0263	0.044
Mof_C 	C 	0.7606	0.4088	0.1845	-0.033
Mof_C 	C 	0.7952	0.3917	0.2763	-0.016
Mof_H 	H 	0.837	0.452	0.341	0.039
Mof_C 	C 	0.7674	0.2843	0.2715	-0.059
Mof_H 	H 	0.7906	0.2728	0.3329	0.05
Mof_C 	C 	0.7974	0.0573	0.0509	0.02
Mof_C 	C 	0.7545	0.092	0.9746	-0.072
Mof_H 	H 	0.6732	0.0889	0.96	0.055
Mof_C 	C 	0.8344	0.1342	0.9149	0.032
Mof_H 	H 	0.8026	0.1547	0.8617	0.029
Mof_C 	C 	0.9487	0.1417	0.9387	-0.038
Mof_C 	C 	0.9968	0.1057	0.9966	0.047
Mof_H 	H 	0.0747	0.1056	0.0002	0.012
Mof_C 	C 	0.9172	0.0567	0.069	-0.099
Mof_H 	H 	0.9493	0.0312	0.1173	0.061
Mof_C 	C 	0.5374	0.7318	0.1342	0.294
Mof_C 	C 	0.5875	0.8526	0.1467	-0.071
Mof_C 	C 	0.5449	0.9163	0.2025	0.004
Mof_H 	H 	0.4886	0.885	0.234	0.044
Mof_C 	C 	0.587	0.0261	0.2106	-0.085
Mof_H 	H 	0.5598	0.0685	0.2491	0.055
Mof_C 	C 	0.6694	0.0751	0.1624	0.005
Mof_C 	C 	0.7122	0.0115	0.1066	-0.03
Mof_C 	C 	0.6723	0.9006	0.1016	-0.024
Mof_H 	H 	0.7038	0.8592	0.0673	0.051
Mof_C 	C 	0.033	0.1881	0.8809	0.326
Mof_C 	C 	0.7793	0.5218	0.1886	0.299
Mof_C 	C 	0.9087	0.0077	0.3748	0.067
Mof_C 	C 	0.9976	0.0714	0.3404	-0.089
Mof_H 	H 	0.0171	0.0377	0.2873	0.068
Mof_C 	C 	0.0573	0.1888	0.3886	-0.029
Mof_H 	H 	0.1176	0.2344	0.3669	0.038
Mof_C 	C 	0.0286	0.2394	0.4688	-0.018
Mof_H 	H 	0.0703	0.3179	0.4993	0.041
Mof_C 	C 	0.9413	0.1768	0.5031	-0.09
Mof_H 	H 	0.9225	0.2107	0.5565	0.077
Mof_C 	C 	0.8811	0.0597	0.4552	0.055
Mof_C 	C 	0.7662	0.8738	0.4033	0.085
Mof_C 	C 	0.6783	0.7613	0.3937	0.056
Mof_C 	C 	0.59	0.7233	0.4359	-0.09
Mof_H 	H 	0.5718	0.7692	0.4806	0.065
Mof_C 	C 	0.6066	0.5793	0.3237	0.022
Mof_H 	H 	0.5991	0.5125	0.2839	0.032
Mof_C 	C 	0.7445	0.9921	0.557	-0.136
Mof_H 	H 	0.7314	0.9319	0.5819	0.075
Mof_H 	H 	0.8131	0.0629	0.615	0.093
Mof_C 	C 	0.6159	0.9952	0.5253	0.077
Mof_C 	C 	0.5905	0.0469	0.4583	-0.078
Mof_H 	H 	0.6515	0.0799	0.4309	0.064
Mof_C 	C 	0.5272	0.9515	0.5671	-0.085
Mof_H 	H 	0.5459	0.9196	0.614	0.055
Mof_Cd	Cd	0.8121	0.73431	0.22201	0.452
Mof_N 	N 	0.6855	0.6758	0.3268	-0.127
Mof_N 	N 	0.8349	0.8911	0.3436	-0.146
Mof_N 	N 	0.7914	0.9745	0.4731	-0.109
Mof_O 	O 	0.5977	0.6855	0.0991	-0.295
Mof_O 	O 	0.4414	0.6826	0.156	-0.245
Mof_O 	O 	0.9849	0.1516	0.7871	-0.301
Mof_O 	O 	0.1493	0.262	0.9316	-0.279
Mof_O 	O 	0.691	0.528	0.1248	-0.29
Mof_O 	O 	0.8809	0.6082	0.257	-0.278
Mof_S 	S 	0.5164	0.582	0.3977	0.009
Mof_C 	C 	0.7957	0.0565	0.0486	0.019
Mof_C 	C 	0.7496	0.0012	0.9441	-0.021
Mof_H 	H 	0.6675	0.935	0.9082	0.033
Mof_C 	C 	0.8278	0.0451	0.8898	-0.049
Mof_H 	H 	0.7944	0.0074	0.8175	0.048
Mof_C 	C 	0.9514	0.1415	0.9396	-0.034
Mof_C 	C 	0.9913	0.1978	0.0512	-0.059
Mof_H 	H 	0.0723	0.2649	0.0888	0.062
Mof_C 	C 	0.914	0.156	0.1042	-0.015
Mof_H 	H 	0.9417	0.1946	0.1758	0.032
Mof_C 	C 	0.7025	0.1886	0.1651	0.02
Mof_C 	C 	0.5986	0.2077	0.1223	-0.038
Mof_H 	H 	0.5118	0.1472	0.0898	0.036
Mof_C 	C 	0.6216	0.312	0.1272	-0.034
Mof_H 	H 	0.5509	0.3212	0.0975	0.048
Mof_C 	C 	0.7505	0.4054	0.1761	-0.028
Mof_C 	C 	0.8538	0.3865	0.2135	-0.008
Mof_H 	H 	0.9407	0.4462	0.2421	0.043
Mof_C 	C 	0.8293	0.2772	0.2091	-0.047
Mof_H 	H 	0.8997	0.2666	0.2362	0.044
Mof_Cd	Cd	0.5	0.5	-0	0.443
_end
