data_functionalizedCrystal
_audit_creation_method	'EQeq! by Chris Wilmer'
_symmetry_space_group_name_H-M	'P1'
_symmetry_Int_Tables_number	1
_symmetry_cell_setting	triclinic
loop_
_symmetry_equiv_pos_as_xyz
  x,y,z
_cell_length_a	19.2919
_cell_length_b	19.2919
_cell_length_c	19.2919
_cell_angle_alpha	90
_cell_angle_beta	90
_cell_angle_gamma	90
loop_
_atom_site_label
_atom_site_type_symbol
_atom_site_fract_x
_atom_site_fract_y
_atom_site_fract_z
_atom_site_charge
Mof_C 	C 	0.0537	0.6931	0.001	-0.65
Mof_H 	H 	0.1	0.7113	0.0019	0.245
Mof_C 	C 	0.0454	0.6207	0.0011	1.234
Mof_H 	H 	0.0843	0.5897	0.0011	-1.078
Mof_C 	C 	0.9798	0.5987	0.9982	-6.062
Mof_C 	C 	0.0741	0.6418	0.0024	-2.225
Mof_H 	H 	0.1204	0.6237	0.0033	1.044
Mof_C 	C 	0.9339	0.7138	0.9994	-3.137
Mof_H 	H 	0.105	0.7448	0.0007	-0.315
Mof_C 	C 	0.9675	0.5206	0.9944	5.173
Mof_H 	H 	0.0034	0.4915	0.9877	-3.035
Mof_O 	O 	0.03611	0.84689	0.95852	-0.553
Mof_N 	N 	0.5206	0.9944	0.9675	-0.653
Mof_C 	C 	0.9463	0.3069	0.001	-0.767
Mof_H 	H 	0.9	0.2887	0.0019	0.429
Mof_C 	C 	0.9546	0.3793	0.0011	0.349
Mof_H 	H 	0.9157	0.4103	0.0011	-0.808
Mof_C 	C 	0.0202	0.4013	0.9982	-3.651
Mof_C 	C 	0.9259	0.3582	0.0024	0.394
Mof_H 	H 	0.8796	0.3763	0.0033	0.177
Mof_C 	C 	0.0661	0.2862	0.9994	-2.217
Mof_H 	H 	0.895	0.2552	0.0007	-0.091
Mof_C 	C 	0.0325	0.4794	0.9944	4.356
Mof_H 	H 	0.9966	0.5085	0.9877	-3.114
Mof_O 	O 	0.96389	0.15311	0.95852	-0.428
Mof_N 	N 	0.4794	0.0056	0.9675	-0.459
Mof_C 	C 	0.9463	0.6931	0.999	-1.552
Mof_H 	H 	0.9	0.7113	0.9981	1.431
Mof_C 	C 	0.9546	0.6207	0.9989	-2.186
Mof_H 	H 	0.9157	0.5897	0.9989	0.373
Mof_C 	C 	0.0202	0.5987	0.0018	3.232
Mof_C 	C 	0.9259	0.6418	0.9976	7.716
Mof_H 	H 	0.8796	0.6237	0.9967	-2.525
Mof_C 	C 	0.0661	0.7138	0.0006	0.758
Mof_H 	H 	0.895	0.7448	0.9993	0.19
Mof_C 	C 	0.0325	0.5206	0.0056	9.598
Mof_H 	H 	0.9966	0.4915	0.0123	-4.552
Mof_O 	O 	0.96389	0.84689	0.04148	-0.198
Mof_N 	N 	0.4794	0.9944	0.0325	-0.06
Mof_C 	C 	0.0537	0.3069	0.999	-1.421
Mof_H 	H 	0.1	0.2887	0.9981	1.233
Mof_C 	C 	0.0454	0.3793	0.9989	-1.31
Mof_H 	H 	0.0843	0.4103	0.9989	0.105
Mof_C 	C 	0.9798	0.4013	0.0018	0.822
Mof_C 	C 	0.0741	0.3582	0.9976	5.1
Mof_H 	H 	0.1204	0.3763	0.9967	-1.655
Mof_C 	C 	0.9339	0.2862	0.0006	-0.155
Mof_H 	H 	0.105	0.2552	0.9993	-0.021
Mof_C 	C 	0.9675	0.4794	0.0056	10.443
Mof_H 	H 	0.0034	0.5085	0.0123	-4.484
Mof_O 	O 	0.03611	0.15311	0.04148	-0.338
Mof_N 	N 	0.5206	0.0056	0.0325	0.121
Mof_C 	C 	0.001	0.0537	0.6931	1.807
Mof_H 	H 	0.0019	0.1	0.7113	-1.364
Mof_C 	C 	0.0011	0.0454	0.6207	-0.409
Mof_H 	H 	0.0011	0.0843	0.5897	1.333
Mof_C 	C 	0.9982	0.9798	0.5987	5.499
Mof_C 	C 	0.0024	0.0741	0.6418	-2.379
Mof_H 	H 	0.0033	0.1204	0.6237	0.422
Mof_C 	C 	0.9994	0.9339	0.7138	3.767
Mof_H 	H 	0.0007	0.105	0.7448	0.328
Mof_C 	C 	0.9944	0.9675	0.5206	-11.662
Mof_H 	H 	0.9877	0.0034	0.4915	6.439
Mof_O 	O 	0.95852	0.03611	0.84689	-0.859
Mof_C 	C 	0.001	0.9463	0.3069	1.815
Mof_H 	H 	0.0019	0.9	0.2887	-1.39
Mof_C 	C 	0.0011	0.9546	0.3793	-0.216
Mof_H 	H 	0.0011	0.9157	0.4103	1.276
Mof_C 	C 	0.9982	0.0202	0.4013	5.006
Mof_C 	C 	0.0024	0.9259	0.3582	-2.909
Mof_H 	H 	0.0033	0.8796	0.3763	0.603
Mof_C 	C 	0.9994	0.0661	0.2862	3.575
Mof_H 	H 	0.0007	0.895	0.2552	0.29
Mof_C 	C 	0.9944	0.0325	0.4794	-11.53
Mof_H 	H 	0.9877	0.9966	0.5085	6.461
Mof_O 	O 	0.95852	0.96389	0.15311	-0.827
Mof_C 	C 	0.999	0.9463	0.6931	2.393
Mof_H 	H 	0.9981	0.9	0.7113	-2.12
Mof_C 	C 	0.9989	0.9546	0.6207	1.602
Mof_H 	H 	0.9989	0.9157	0.5897	0.426
Mof_C 	C 	0.0018	0.0202	0.5987	0.045
Mof_C 	C 	0.9976	0.9259	0.6418	-8.193
Mof_H 	H 	0.9967	0.8796	0.6237	2.547
Mof_C 	C 	0.0006	0.0661	0.7138	1.432
Mof_H 	H 	0.9993	0.895	0.7448	0.075
Mof_C 	C 	0.0056	0.0325	0.5206	-15.298
Mof_H 	H 	0.0123	0.9966	0.4915	7.497
Mof_O 	O 	0.04148	0.96389	0.84689	-1.039
Mof_C 	C 	0.999	0.0537	0.3069	2.352
Mof_H 	H 	0.9981	0.1	0.2887	-2.07
Mof_C 	C 	0.9989	0.0454	0.3793	1.436
Mof_H 	H 	0.9989	0.0843	0.4103	0.476
Mof_C 	C 	0.0018	0.9798	0.4013	0.532
Mof_C 	C 	0.9976	0.0741	0.3582	-7.657
Mof_H 	H 	0.9967	0.1204	0.3763	2.374
Mof_C 	C 	0.0006	0.9339	0.2862	1.613
Mof_H 	H 	0.9993	0.105	0.2552	0.128
Mof_C 	C 	0.0056	0.9675	0.4794	-15.482
Mof_H 	H 	0.0123	0.0034	0.5085	7.489
Mof_O 	O 	0.04148	0.03611	0.15311	-0.962
Mof_C 	C 	0.6931	0.001	0.0537	-0.346
Mof_H 	H 	0.7113	0.0019	0.1	0.345
Mof_C 	C 	0.6207	0.0011	0.0454	-1.08
Mof_H 	H 	0.5897	0.0011	0.0843	0.419
Mof_C 	C 	0.5987	0.9982	0.9798	3.034
Mof_C 	C 	0.6418	0.0024	0.0741	3.189
Mof_H 	H 	0.6237	0.0033	0.1204	-1.05
Mof_C 	C 	0.7138	0.9994	0.9339	1.263
Mof_H 	H 	0.7448	0.0007	0.105	0.232
Mof_H 	H 	0.4915	0.9877	0.0034	-0.022
Mof_O 	O 	0.84689	0.95852	0.03611	-0.553
Mof_C 	C 	0.3069	0.001	0.9463	0.022
Mof_H 	H 	0.2887	0.0019	0.9	-0.18
Mof_C 	C 	0.3793	0.0011	0.9546	0.902
Mof_H 	H 	0.4103	0.0011	0.9157	-0.224
Mof_C 	C 	0.4013	0.9982	0.0202	-2.39
Mof_C 	C 	0.3582	0.0024	0.9259	-2.704
Mof_H 	H 	0.3763	0.0033	0.8796	0.949
Mof_C 	C 	0.2862	0.9994	0.0661	-0.889
Mof_H 	H 	0.2552	0.0007	0.895	-0.215
Mof_H 	H 	0.5085	0.9877	0.9966	0.385
Mof_O 	O 	0.15311	0.95852	0.96389	-0.781
Mof_C 	C 	0.6931	0.999	0.9463	0.045
Mof_H 	H 	0.7113	0.9981	0.9	-0.22
Mof_C 	C 	0.6207	0.9989	0.9546	1.113
Mof_H 	H 	0.5897	0.9989	0.9157	-0.288
Mof_C 	C 	0.5987	0.0018	0.0202	-2.945
Mof_C 	C 	0.6418	0.9976	0.9259	-3.307
Mof_H 	H 	0.6237	0.9967	0.8796	1.151
Mof_C 	C 	0.7138	0.0006	0.0661	-1.103
Mof_H 	H 	0.7448	0.9993	0.895	-0.266
Mof_H 	H 	0.4915	0.0123	0.9966	0.362
Mof_O 	O 	0.84689	0.04148	0.96389	-0.727
Mof_C 	C 	0.3069	0.999	0.0537	-0.315
Mof_H 	H 	0.2887	0.9981	0.1	0.301
Mof_C 	C 	0.3793	0.9989	0.0454	-0.878
Mof_H 	H 	0.4103	0.9989	0.0843	0.358
Mof_C 	C 	0.4013	0.0018	0.9798	2.484
Mof_C 	C 	0.3582	0.9976	0.0741	2.579
Mof_H 	H 	0.3763	0.9967	0.1204	-0.854
Mof_C 	C 	0.2862	0.0006	0.9339	1.051
Mof_H 	H 	0.2552	0.9993	0.105	0.162
Mof_H 	H 	0.5085	0.0123	0.0034	-0.037
Mof_O 	O 	0.15311	0.04148	0.03611	-0.564
Mof_C 	C 	-0	0.8175	-0	-0.104
Mof_C 	C 	-0	0.7398	-0	1.634
Mof_C 	C 	-1.75791e-33	0.1825	-0	-0.082
Mof_C 	C 	-0	0.2602	-0	1.623
Mof_C 	C 	3.06513e-33	0	0.8175	1.727
Mof_C 	C 	2.77381e-33	0	0.7398	-3.741
Mof_C 	C 	-1.07364e-33	-1.75791e-33	0.1825	1.686
Mof_C 	C 	9.75594e-34	0	0.2602	-3.702
Mof_C 	C 	0.8175	0	-0	0.708
Mof_C 	C 	0.7398	0	-0	0.04
Mof_C 	C 	0.1825	0	-0	0.725
Mof_C 	C 	0.2602	0	-0	0.025
Mof_O 	O 	-0	0	-0	-0.87
Mof_O 	O 	0.9142	0.5	-0	-5.378
Mof_O 	O 	0.0858	0.5	-0	-4.914
Mof_O 	O 	1.8747e-33	0.9142	0.5	8.976
Mof_O 	O 	1.8747e-33	0.0858	0.5	8.897
Mof_O 	O 	0.5	0	0.9142	0.046
Mof_O 	O 	0.5	0	0.0858	0.017
Mof_Zn	Zn	0.05881	0.94119	0.94119	1.196
Mof_Zn	Zn	0.94119	0.05881	0.94119	1.23
Mof_Zn	Zn	0.94119	0.94119	0.05881	1.266
Mof_Zn	Zn	0.05881	0.05881	0.05881	1.242
Mof_C 	C 	0.5537	0.1931	0.501	0.418
Mof_H 	H 	0.6	0.2113	0.5019	-0.386
Mof_C 	C 	0.5454	0.1207	0.5011	0.04
Mof_H 	H 	0.5843	0.0897	0.5011	0.247
Mof_C 	C 	0.4798	0.0987	0.4982	0.62
Mof_C 	C 	0.5741	0.1418	0.5024	-1.089
Mof_H 	H 	0.6204	0.1237	0.5033	0.342
Mof_C 	C 	0.4339	0.2138	0.4994	0.638
Mof_H 	H 	0.605	0.2448	0.5007	0.067
Mof_C 	C 	0.4675	0.0206	0.4944	-2.655
Mof_H 	H 	0.5034	0.9915	0.4877	1.392
Mof_O 	O 	0.53611	0.34689	0.45852	-0.651
Mof_N 	N 	0.0206	0.4944	0.4675	-0.37
Mof_C 	C 	0.4463	0.8069	0.501	0.435
Mof_H 	H 	0.4	0.7887	0.5019	-0.4
Mof_C 	C 	0.4546	0.8793	0.5011	0.05
Mof_H 	H 	0.4157	0.9103	0.5011	0.249
Mof_C 	C 	0.5202	0.9013	0.4982	0.631
Mof_C 	C 	0.4259	0.8582	0.5024	-1.143
Mof_H 	H 	0.3796	0.8763	0.5033	0.344
Mof_C 	C 	0.5661	0.7862	0.4994	0.654
Mof_H 	H 	0.395	0.7552	0.5007	0.058
Mof_C 	C 	0.5325	0.9794	0.4944	-2.745
Mof_H 	H 	0.4966	0.0085	0.4877	1.437
Mof_O 	O 	0.46389	0.65311	0.45852	-0.657
Mof_N 	N 	0.9794	0.5056	0.4675	-0.015
Mof_C 	C 	0.4463	0.1931	0.499	0.422
Mof_H 	H 	0.4	0.2113	0.4981	-0.391
Mof_C 	C 	0.4546	0.1207	0.4989	0.055
Mof_H 	H 	0.4157	0.0897	0.4989	0.24
Mof_C 	C 	0.5202	0.0987	0.5018	0.582
Mof_C 	C 	0.4259	0.1418	0.4976	-1.131
Mof_H 	H 	0.3796	0.1237	0.4967	0.351
Mof_C 	C 	0.5661	0.2138	0.5006	0.624
Mof_H 	H 	0.395	0.2448	0.4993	0.059
Mof_C 	C 	0.5325	0.0206	0.5056	-2.67
Mof_H 	H 	0.4966	0.9915	0.5123	1.387
Mof_O 	O 	0.46389	0.34689	0.54148	-0.659
Mof_N 	N 	0.9794	0.4944	0.5325	-0.016
Mof_C 	C 	0.5537	0.8069	0.499	0.436
Mof_H 	H 	0.6	0.7887	0.4981	-0.402
Mof_C 	C 	0.5454	0.8793	0.4989	0.059
Mof_H 	H 	0.5843	0.9103	0.4989	0.246
Mof_C 	C 	0.4798	0.9013	0.5018	0.61
Mof_C 	C 	0.5741	0.8582	0.4976	-1.165
Mof_H 	H 	0.6204	0.8763	0.4967	0.362
Mof_C 	C 	0.4339	0.7862	0.5006	0.642
Mof_H 	H 	0.605	0.7552	0.4993	0.065
Mof_C 	C 	0.4675	0.9794	0.5056	-2.763
Mof_H 	H 	0.5034	0.0085	0.5123	1.434
Mof_O 	O 	0.53611	0.65311	0.54148	-0.661
Mof_N 	N 	0.0206	0.5056	0.5325	-0.371
Mof_C 	C 	0.501	0.5537	0.1931	-1.245
Mof_H 	H 	0.5019	0.6	0.2113	0.957
Mof_C 	C 	0.5011	0.5454	0.1207	-0.578
Mof_H 	H 	0.5011	0.5843	0.0897	-0.412
Mof_C 	C 	0.4982	0.4798	0.0987	-1.672
Mof_C 	C 	0.5024	0.5741	0.1418	3.252
Mof_H 	H 	0.5033	0.6204	0.1237	-0.846
Mof_C 	C 	0.4994	0.4339	0.2138	-1.398
Mof_H 	H 	0.5007	0.605	0.2448	-0.049
Mof_C 	C 	0.4944	0.4675	0.0206	8.751
Mof_H 	H 	0.4877	0.5034	0.9915	-4.494
Mof_O 	O 	0.45852	0.53611	0.34689	-0.322
Mof_C 	C 	0.501	0.4463	0.8069	-1.135
Mof_H 	H 	0.5019	0.4	0.7887	0.865
Mof_C 	C 	0.5011	0.4546	0.8793	-0.53
Mof_H 	H 	0.5011	0.4157	0.9103	-0.38
Mof_C 	C 	0.4982	0.5202	0.9013	-1.526
Mof_C 	C 	0.5024	0.4259	0.8582	2.939
Mof_H 	H 	0.5033	0.3796	0.8763	-0.797
Mof_C 	C 	0.4994	0.5661	0.7862	-1.272
Mof_H 	H 	0.5007	0.395	0.7552	-0.054
Mof_C 	C 	0.4944	0.5325	0.9794	8.088
Mof_H 	H 	0.4877	0.4966	0.0085	-4.163
Mof_O 	O 	0.45852	0.46389	0.65311	-0.355
Mof_C 	C 	0.499	0.4463	0.1931	-1.247
Mof_H 	H 	0.4981	0.4	0.2113	0.959
Mof_C 	C 	0.4989	0.4546	0.1207	-0.586
Mof_H 	H 	0.4989	0.4157	0.0897	-0.408
Mof_C 	C 	0.5018	0.5202	0.0987	-1.654
Mof_C 	C 	0.4976	0.4259	0.1418	3.272
Mof_H 	H 	0.4967	0.3796	0.1237	-0.852
Mof_C 	C 	0.5006	0.5661	0.2138	-1.391
Mof_H 	H 	0.4993	0.395	0.2448	-0.047
Mof_C 	C 	0.5056	0.5325	0.0206	8.759
Mof_H 	H 	0.5123	0.4966	0.9915	-4.49
Mof_O 	O 	0.54148	0.46389	0.34689	-0.318
Mof_C 	C 	0.499	0.5537	0.8069	-1.136
Mof_H 	H 	0.4981	0.6	0.7887	0.867
Mof_C 	C 	0.4989	0.5454	0.8793	-0.535
Mof_H 	H 	0.4989	0.5843	0.9103	-0.378
Mof_C 	C 	0.5018	0.4798	0.9013	-1.515
Mof_C 	C 	0.4976	0.5741	0.8582	2.951
Mof_H 	H 	0.4967	0.6204	0.8763	-0.805
Mof_C 	C 	0.5006	0.4339	0.7862	-1.267
Mof_H 	H 	0.4993	0.605	0.7552	-0.056
Mof_C 	C 	0.5056	0.4675	0.9794	8.097
Mof_H 	H 	0.5123	0.5034	0.0085	-4.16
Mof_O 	O 	0.54148	0.53611	0.65311	-0.351
Mof_C 	C 	0.1931	0.501	0.5537	0.066
Mof_H 	H 	0.2113	0.5019	0.6	-0.108
Mof_C 	C 	0.1207	0.5011	0.5454	-0.08
Mof_H 	H 	0.0897	0.5011	0.5843	0.104
Mof_C 	C 	0.0987	0.4982	0.4798	0.1
Mof_C 	C 	0.1418	0.5024	0.5741	-0.215
Mof_H 	H 	0.1237	0.5033	0.6204	0.054
Mof_C 	C 	0.2138	0.4994	0.4339	0.19
Mof_H 	H 	0.2448	0.5007	0.605	0.021
Mof_H 	H 	0.9915	0.4877	0.5034	0.052
Mof_O 	O 	0.34689	0.45852	0.53611	-0.595
Mof_C 	C 	0.8069	0.501	0.4463	0.046
Mof_H 	H 	0.7887	0.5019	0.4	-0.089
Mof_C 	C 	0.8793	0.5011	0.4546	-0.102
Mof_H 	H 	0.9103	0.5011	0.4157	0.117
Mof_C 	C 	0.9013	0.4982	0.5202	0.099
Mof_C 	C 	0.8582	0.5024	0.4259	-0.129
Mof_H 	H 	0.8763	0.5033	0.3796	0.07
Mof_C 	C 	0.7862	0.4994	0.5661	0.179
Mof_H 	H 	0.7552	0.5007	0.395	0.041
Mof_H 	H 	0.0085	0.4877	0.4966	0.212
Mof_O 	O 	0.65311	0.45852	0.46389	-0.581
Mof_C 	C 	0.1931	0.499	0.4463	0.064
Mof_H 	H 	0.2113	0.4981	0.4	-0.105
Mof_C 	C 	0.1207	0.4989	0.4546	-0.086
Mof_H 	H 	0.0897	0.4989	0.4157	0.107
Mof_C 	C 	0.0987	0.5018	0.5202	0.118
Mof_C 	C 	0.1418	0.4976	0.4259	-0.194
Mof_H 	H 	0.1237	0.4967	0.3796	0.057
Mof_C 	C 	0.2138	0.5006	0.5661	0.194
Mof_H 	H 	0.2448	0.4993	0.395	0.032
Mof_H 	H 	0.9915	0.5123	0.4966	0.05
Mof_O 	O 	0.34689	0.54148	0.46389	-0.593
Mof_C 	C 	0.8069	0.499	0.5537	0.048
Mof_H 	H 	0.7887	0.4981	0.6	-0.092
Mof_C 	C 	0.8793	0.4989	0.5454	-0.096
Mof_H 	H 	0.9103	0.4989	0.5843	0.114
Mof_C 	C 	0.9013	0.5018	0.4798	0.083
Mof_C 	C 	0.8582	0.4976	0.5741	-0.148
Mof_H 	H 	0.8763	0.4967	0.6204	0.065
Mof_C 	C 	0.7862	0.5006	0.4339	0.176
Mof_H 	H 	0.7552	0.4993	0.605	0.031
Mof_H 	H 	0.0085	0.5123	0.5034	0.211
Mof_O 	O 	0.65311	0.54148	0.53611	-0.584
Mof_C 	C 	0.5	0.3175	0.5	0.799
Mof_C 	C 	0.5	0.2398	0.5	-0.917
Mof_C 	C 	0.5	0.6825	0.5	0.809
Mof_C 	C 	0.5	0.7602	0.5	-0.945
Mof_C 	C 	0.5	0.5	0.3175	-0.246
Mof_C 	C 	0.5	0.5	0.2398	1.892
Mof_C 	C 	0.5	0.5	0.6825	-0.176
Mof_C 	C 	0.5	0.5	0.7602	1.688
Mof_C 	C 	0.3175	0.5	0.5	0.578
Mof_C 	C 	0.2398	0.5	0.5	-0.339
Mof_C 	C 	0.6825	0.5	0.5	0.567
Mof_C 	C 	0.7602	0.5	0.5	-0.297
Mof_O 	O 	0.5	0.5	0.5	-0.916
Mof_O 	O 	0.4142	0	0.5	1.685
Mof_O 	O 	0.5858	0	0.5	1.689
Mof_O 	O 	0.5	0.4142	-0	-5.831
Mof_O 	O 	0.5	0.5858	-0	-5.832
Mof_O 	O 	5.06881e-33	0.5	0.4142	-0.171
Mof_O 	O 	-4.83522e-33	0.5	0.5858	-0.179
Mof_Zn	Zn	0.55881	0.44119	0.44119	1.225
Mof_Zn	Zn	0.44119	0.55881	0.44119	1.225
Mof_Zn	Zn	0.44119	0.44119	0.55881	1.224
Mof_Zn	Zn	0.55881	0.55881	0.55881	1.225
_end
