data_functionalizedCrystal
_audit_creation_method	'EQeq! by Chris Wilmer'
_symmetry_space_group_name_H-M	'P1'
_symmetry_Int_Tables_number	1
_symmetry_cell_setting	triclinic
loop_
_symmetry_equiv_pos_as_xyz
  x,y,z
_cell_length_a	15.118
_cell_length_b	15.3708
_cell_length_c	15.3708
_cell_angle_alpha	120
_cell_angle_beta	90
_cell_angle_gamma	90
loop_
_atom_site_label
_atom_site_type_symbol
_atom_site_fract_x
_atom_site_fract_y
_atom_site_fract_z
_atom_site_charge
Mof_La	La	0.75	0.33333	0.66666	2.364
Mof_La	La	0.75	0.66667	0.33334	2.364
Mof_La	La	0.25	0.66667	0.33334	2.33
Mof_La	La	0.25	0.33333	0.66666	2.329
Mof_Zn	Zn	4.0804e-33	0.5	0.5	1.167
Mof_Zn	Zn	4.0804e-33	3.6753e-17	0.5	1.137
Mof_Zn	Zn	-0	0.5	-0	1.137
Mof_Zn	Zn	0.5	3.6753e-17	0.5	1.188
Mof_Zn	Zn	0.5	0.5	0.5	1.219
Mof_Zn	Zn	0.5	0.5	-0	1.188
Mof_H 	H 	0.7606	0.287	0.3789	0.088
Mof_H 	H 	0.8358	0.2113	0.3672	0.096
Mof_H 	H 	0.7606	0.0919	0.713	0.077
Mof_H 	H 	0.8358	0.1559	0.7887	0.12
Mof_H 	H 	0.7606	0.6211	0.9081	0.138
Mof_H 	H 	0.8358	0.6328	0.8441	0.143
Mof_H 	H 	0.7606	0.713	0.6211	0.115
Mof_H 	H 	0.8358	0.7887	0.6328	0.144
Mof_H 	H 	0.7606	0.9081	0.287	0.124
Mof_H 	H 	0.8358	0.8441	0.2113	0.119
Mof_H 	H 	0.7606	0.3789	0.0919	0.065
Mof_H 	H 	0.8358	0.3672	0.1559	0.097
Mof_H 	H 	0.7394	0.9081	0.6211	0.141
Mof_H 	H 	0.6642	0.8441	0.6328	0.124
Mof_H 	H 	0.7394	0.3789	0.287	0.092
Mof_H 	H 	0.6642	0.3672	0.2113	0.077
Mof_H 	H 	0.7394	0.713	0.0919	0.081
Mof_H 	H 	0.6642	0.7887	0.1559	0.101
Mof_H 	H 	0.7394	0.0919	0.3789	0.068
Mof_H 	H 	0.6642	0.1559	0.3672	0.077
Mof_H 	H 	0.7394	0.6211	0.713	0.118
Mof_H 	H 	0.6642	0.6328	0.7887	0.125
Mof_H 	H 	0.7394	0.287	0.9081	0.128
Mof_H 	H 	0.6642	0.2113	0.8441	0.1
Mof_H 	H 	0.2394	0.713	0.6211	0.104
Mof_H 	H 	0.1642	0.7887	0.6328	0.098
Mof_H 	H 	0.2394	0.9081	0.287	0.114
Mof_H 	H 	0.1642	0.8441	0.2113	0.073
Mof_H 	H 	0.2394	0.3789	0.0919	0.053
Mof_H 	H 	0.1642	0.3672	0.1559	0.049
Mof_H 	H 	0.2394	0.287	0.3789	0.077
Mof_H 	H 	0.1642	0.2113	0.3672	0.049
Mof_H 	H 	0.2394	0.0919	0.713	0.067
Mof_H 	H 	0.1642	0.1559	0.7887	0.074
Mof_H 	H 	0.2394	0.6211	0.9081	0.128
Mof_H 	H 	0.1642	0.6328	0.8441	0.097
Mof_H 	H 	0.2606	0.0919	0.3789	0.051
Mof_H 	H 	0.3358	0.1559	0.3672	0.068
Mof_H 	H 	0.2606	0.6211	0.713	0.102
Mof_H 	H 	0.3358	0.6328	0.7887	0.117
Mof_H 	H 	0.2606	0.287	0.9081	0.112
Mof_H 	H 	0.3358	0.2113	0.8441	0.092
Mof_H 	H 	0.2606	0.9081	0.6211	0.126
Mof_H 	H 	0.3358	0.8441	0.6328	0.116
Mof_H 	H 	0.2606	0.3789	0.287	0.075
Mof_H 	H 	0.3358	0.3672	0.2113	0.068
Mof_H 	H 	0.2606	0.713	0.0919	0.065
Mof_H 	H 	0.3358	0.7887	0.1559	0.093
Mof_C 	C 	0.8584	0.353	0.4827	0.437
Mof_C 	C 	0.7999	0.2669	0.4156	-0.204
Mof_C 	C 	0.8584	0.1297	0.647	0.443
Mof_C 	C 	0.7999	0.1487	0.7331	-0.217
Mof_C 	C 	0.8584	0.5173	0.8703	0.456
Mof_C 	C 	0.7999	0.5844	0.8513	-0.248
Mof_C 	C 	0.8584	0.647	0.5173	0.456
Mof_C 	C 	0.7999	0.7331	0.5844	-0.244
Mof_C 	C 	0.8584	0.8703	0.353	0.446
Mof_C 	C 	0.7999	0.8513	0.2669	-0.228
Mof_C 	C 	0.8584	0.4827	0.1297	0.433
Mof_C 	C 	0.7999	0.4156	0.1487	-0.198
Mof_C 	C 	0.6416	0.8703	0.5173	0.458
Mof_C 	C 	0.7001	0.8513	0.5844	-0.251
Mof_C 	C 	0.6416	0.4827	0.353	0.439
Mof_C 	C 	0.7001	0.4156	0.2669	-0.207
Mof_C 	C 	0.6416	0.647	0.1297	0.446
Mof_C 	C 	0.7001	0.7331	0.1487	-0.221
Mof_C 	C 	0.6416	0.1297	0.4827	0.436
Mof_C 	C 	0.7001	0.1487	0.4156	-0.201
Mof_C 	C 	0.6416	0.5173	0.647	0.459
Mof_C 	C 	0.7001	0.5844	0.7331	-0.248
Mof_C 	C 	0.6416	0.353	0.8703	0.448
Mof_C 	C 	0.7001	0.2669	0.8513	-0.231
Mof_C 	C 	0.1416	0.647	0.5173	0.449
Mof_C 	C 	0.2001	0.7331	0.5844	-0.234
Mof_C 	C 	0.1416	0.8703	0.353	0.439
Mof_C 	C 	0.2001	0.8513	0.2669	-0.218
Mof_C 	C 	0.1416	0.4827	0.1297	0.426
Mof_C 	C 	0.2001	0.4156	0.1487	-0.187
Mof_C 	C 	0.1416	0.353	0.4827	0.429
Mof_C 	C 	0.2001	0.2669	0.4156	-0.193
Mof_C 	C 	0.1416	0.1297	0.647	0.436
Mof_C 	C 	0.2001	0.1487	0.7331	-0.208
Mof_C 	C 	0.1416	0.5173	0.8703	0.449
Mof_C 	C 	0.2001	0.5844	0.8513	-0.238
Mof_C 	C 	0.3584	0.1297	0.4827	0.429
Mof_C 	C 	0.2999	0.1487	0.4156	-0.187
Mof_C 	C 	0.3584	0.5173	0.647	0.452
Mof_C 	C 	0.2999	0.5844	0.7331	-0.234
Mof_C 	C 	0.3584	0.353	0.8703	0.442
Mof_C 	C 	0.2999	0.2669	0.8513	-0.218
Mof_C 	C 	0.3584	0.8703	0.5173	0.452
Mof_C 	C 	0.2999	0.8513	0.5844	-0.238
Mof_C 	C 	0.3584	0.4827	0.353	0.432
Mof_C 	C 	0.2999	0.4156	0.2669	-0.193
Mof_C 	C 	0.3584	0.647	0.1297	0.439
Mof_C 	C 	0.2999	0.7331	0.1487	-0.208
Mof_O 	O 	0.85804	0.38205	0.5749	-0.478
Mof_O 	O 	0.90405	0.38918	0.44119	-0.41
Mof_O 	O 	0.85804	0.19285	0.61795	-0.488
Mof_O 	O 	0.90405	0.05201	0.61082	-0.44
Mof_O 	O 	0.85804	0.4251	0.80715	-0.471
Mof_O 	O 	0.90405	0.55881	0.94799	-0.362
Mof_O 	O 	0.85804	0.61795	0.4251	-0.482
Mof_O 	O 	0.90405	0.61082	0.55881	-0.404
Mof_O 	O 	0.85804	0.80715	0.38205	-0.47
Mof_O 	O 	0.90405	0.94799	0.38918	-0.365
Mof_O 	O 	0.85804	0.5749	0.19285	-0.487
Mof_O 	O 	0.90405	0.44119	0.05201	-0.443
Mof_O 	O 	0.64196	0.80715	0.4251	-0.505
Mof_O 	O 	0.59595	0.94799	0.55881	-0.425
Mof_O 	O 	0.64196	0.5749	0.38205	-0.512
Mof_O 	O 	0.59595	0.44119	0.38918	-0.476
Mof_O 	O 	0.64196	0.61795	0.19285	-0.523
Mof_O 	O 	0.59595	0.61082	0.05201	-0.506
Mof_O 	O 	0.64196	0.19285	0.5749	-0.521
Mof_O 	O 	0.59595	0.05201	0.44119	-0.509
Mof_O 	O 	0.64196	0.4251	0.61795	-0.516
Mof_O 	O 	0.59595	0.55881	0.61082	-0.47
Mof_O 	O 	0.64196	0.38205	0.80715	-0.503
Mof_O 	O 	0.59595	0.38918	0.94799	-0.428
Mof_O 	O 	0.14196	0.61795	0.4251	-0.539
Mof_O 	O 	0.09595	0.61082	0.55881	-0.512
Mof_O 	O 	0.14196	0.80715	0.38205	-0.525
Mof_O 	O 	0.09595	0.94799	0.38918	-0.47
Mof_O 	O 	0.14196	0.5749	0.19285	-0.543
Mof_O 	O 	0.09595	0.44119	0.05201	-0.552
Mof_O 	O 	0.14196	0.38205	0.5749	-0.535
Mof_O 	O 	0.09595	0.38918	0.44119	-0.519
Mof_O 	O 	0.14196	0.19285	0.61795	-0.545
Mof_O 	O 	0.09595	0.05201	0.61082	-0.548
Mof_O 	O 	0.14196	0.4251	0.80715	-0.527
Mof_O 	O 	0.09595	0.55881	0.94799	-0.467
Mof_O 	O 	0.35804	0.19285	0.5749	-0.516
Mof_O 	O 	0.40405	0.05201	0.44119	-0.508
Mof_O 	O 	0.35804	0.4251	0.61795	-0.511
Mof_O 	O 	0.40405	0.55881	0.61082	-0.468
Mof_O 	O 	0.35804	0.38205	0.80715	-0.498
Mof_O 	O 	0.40405	0.38918	0.94799	-0.427
Mof_O 	O 	0.35804	0.80715	0.4251	-0.5
Mof_O 	O 	0.40405	0.94799	0.55881	-0.424
Mof_O 	O 	0.35804	0.5749	0.38205	-0.507
Mof_O 	O 	0.40405	0.44119	0.38918	-0.475
Mof_O 	O 	0.35804	0.61795	0.19285	-0.517
Mof_O 	O 	0.40405	0.61082	0.05201	-0.505
Mof_O 	O 	0.75	0.23609	0.47218	-0.267
Mof_O 	O 	0.75	0.23609	0.76391	-0.253
Mof_O 	O 	0.75	0.52782	0.76391	-0.238
Mof_O 	O 	0.75	0.76391	0.52782	-0.238
Mof_O 	O 	0.75	0.76391	0.23609	-0.253
Mof_O 	O 	0.75	0.47218	0.23609	-0.267
Mof_O 	O 	0.25	0.76391	0.52782	-0.248
Mof_O 	O 	0.25	0.76391	0.23609	-0.263
Mof_O 	O 	0.25	0.47218	0.23609	-0.278
Mof_O 	O 	0.25	0.23609	0.47218	-0.278
Mof_O 	O 	0.25	0.23609	0.76391	-0.263
Mof_O 	O 	0.25	0.52782	0.76391	-0.248
_end
