data_functionalizedCrystal
_audit_creation_method	'EQeq! by Chris Wilmer'
_symmetry_space_group_name_H-M	'P1'
_symmetry_Int_Tables_number	1
_symmetry_cell_setting	triclinic
loop_
_symmetry_equiv_pos_as_xyz
  x,y,z
_cell_length_a	6.6597
_cell_length_b	11.0287
_cell_length_c	11.0287
_cell_angle_alpha	71.9104
_cell_angle_beta	90
_cell_angle_gamma	90
loop_
_atom_site_label
_atom_site_type_symbol
_atom_site_fract_x
_atom_site_fract_y
_atom_site_fract_z
_atom_site_charge
Mof_Zn	Zn	0.88019	0	0.5	1.209
Mof_Zn	Zn	0.11981	0.5	-0	1.209
Mof_H 	H 	0.6659	0.9561	0.1417	0.142
Mof_H 	H 	0.4466	0.9799	0.1903	0.168
Mof_H 	H 	0.3921	0.2635	0.4329	0.14
Mof_H 	H 	0.2603	0.3468	0.315	0.14
Mof_H 	H 	0.616	0.743	0.235	0.122
Mof_H 	H 	0.55	0.186	0.26	0.113
Mof_H 	H 	0.6659	0.0439	0.8583	0.084
Mof_H 	H 	0.4466	0.0201	0.8097	0.083
Mof_H 	H 	0.3921	0.7365	0.5671	0.144
Mof_H 	H 	0.2603	0.6532	0.685	0.137
Mof_H 	H 	0.616	0.257	0.765	0.128
Mof_H 	H 	0.55	0.814	0.74	0.143
Mof_H 	H 	0.3341	0.1417	0.9561	0.143
Mof_H 	H 	0.5534	0.1903	0.9799	0.169
Mof_H 	H 	0.6079	0.4329	0.2635	0.141
Mof_H 	H 	0.7397	0.315	0.3468	0.141
Mof_H 	H 	0.384	0.235	0.743	0.123
Mof_H 	H 	0.45	0.26	0.186	0.113
Mof_H 	H 	0.3341	0.8583	0.0439	0.084
Mof_H 	H 	0.5534	0.8097	0.0201	0.083
Mof_H 	H 	0.6079	0.5671	0.7365	0.144
Mof_H 	H 	0.7397	0.685	0.6532	0.137
Mof_H 	H 	0.384	0.765	0.257	0.128
Mof_H 	H 	0.45	0.74	0.814	0.143
Mof_C 	C 	0.5635	0.92146	0.20866	-0.312
Mof_C 	C 	0.65	0.91255	0.33855	0.522
Mof_C 	C 	0.3347	0.26557	0.34957	-0.27
Mof_C 	C 	0.1908	0.15498	0.36858	0.401
Mof_C 	C 	0.5635	0.07854	0.79134	-0.186
Mof_C 	C 	0.65	0.08745	0.66145	0.239
Mof_C 	C 	0.3347	0.73443	0.65043	-0.241
Mof_C 	C 	0.1908	0.84502	0.63142	0.383
Mof_C 	C 	0.4365	0.20866	0.92146	-0.312
Mof_C 	C 	0.35	0.33855	0.91255	0.522
Mof_C 	C 	0.6653	0.34957	0.26557	-0.27
Mof_C 	C 	0.8092	0.36858	0.15498	0.401
Mof_C 	C 	0.4365	0.79134	0.07854	-0.186
Mof_C 	C 	0.35	0.66145	0.08745	0.239
Mof_C 	C 	0.6653	0.65043	0.73443	-0.241
Mof_C 	C 	0.8092	0.63142	0.84502	0.383
Mof_N 	N 	0.5	0.7922	0.2078	-0.158
Mof_N 	N 	0.5	0.2078	0.7922	-0.158
Mof_N 	N 	0.5	0.26085	0.26085	-0.149
Mof_N 	N 	0.5	0.73915	0.73915	-0.17
Mof_O 	O 	0.7098	0.01902	0.34892	-0.554
Mof_O 	O 	0.6601	0.80986	0.4219	-0.341
Mof_O 	O 	0.0514	0.15236	0.44854	-0.462
Mof_O 	O 	0.2159	0.07865	0.30985	-0.361
Mof_O 	O 	0.7098	0.98098	0.65108	-0.314
Mof_O 	O 	0.6601	0.19014	0.5781	-0.284
Mof_O 	O 	0.0514	0.84764	0.55146	-0.408
Mof_O 	O 	0.2159	0.92135	0.69015	-0.25
Mof_O 	O 	0.2902	0.34892	0.01902	-0.554
Mof_O 	O 	0.3399	0.4219	0.80986	-0.341
Mof_O 	O 	0.9486	0.44854	0.15236	-0.462
Mof_O 	O 	0.7841	0.30985	0.07865	-0.361
Mof_O 	O 	0.2902	0.65108	0.98098	-0.314
Mof_O 	O 	0.3399	0.5781	0.19014	-0.284
Mof_O 	O 	0.9486	0.55146	0.84764	-0.408
Mof_O 	O 	0.7841	0.69015	0.92135	-0.25
_end
