data_functionalizedCrystal
_audit_creation_method	'EQeq! by Chris Wilmer'
_symmetry_space_group_name_H-M	'P1'
_symmetry_Int_Tables_number	1
_symmetry_cell_setting	triclinic
loop_
_symmetry_equiv_pos_as_xyz
  x,y,z
_cell_length_a	25.3669
_cell_length_b	25.3669
_cell_length_c	25.3669
_cell_angle_alpha	90
_cell_angle_beta	90
_cell_angle_gamma	90
loop_
_atom_site_label
_atom_site_type_symbol
_atom_site_fract_x
_atom_site_fract_y
_atom_site_fract_z
_atom_site_charge
Mof_C 	C 	0.6381	0.6752	0.958	-0.027
Mof_H 	H 	0.6132	0.675	0.9295	0.066
Mof_C 	C 	0.6792	0.7147	0.9618	0.086
Mof_H 	H 	0.6799	0.7417	0.9353	0.033
Mof_C 	C 	0.3619	0.3248	0.958	-0.031
Mof_H 	H 	0.3868	0.325	0.9295	0.063
Mof_C 	C 	0.3208	0.2853	0.9618	0.095
Mof_H 	H 	0.3201	0.2583	0.9353	0.021
Mof_C 	C 	0.3619	0.6752	0.042	-0.083
Mof_H 	H 	0.3868	0.675	0.0705	0.053
Mof_C 	C 	0.3208	0.7147	0.0382	0.027
Mof_H 	H 	0.3201	0.7417	0.0647	0.019
Mof_C 	C 	0.6381	0.3248	0.042	-0.085
Mof_H 	H 	0.6132	0.325	0.0705	0.051
Mof_C 	C 	0.6792	0.2853	0.0382	0.026
Mof_H 	H 	0.6799	0.2583	0.0647	0.013
Mof_C 	C 	0.958	0.6381	0.6752	-0.027
Mof_H 	H 	0.9295	0.6132	0.675	0.066
Mof_C 	C 	0.9618	0.6792	0.7147	0.086
Mof_H 	H 	0.9353	0.6799	0.7417	0.033
Mof_C 	C 	0.958	0.3619	0.3248	-0.031
Mof_H 	H 	0.9295	0.3868	0.325	0.063
Mof_C 	C 	0.9618	0.3208	0.2853	0.095
Mof_H 	H 	0.9353	0.3201	0.2583	0.021
Mof_C 	C 	0.042	0.3619	0.6752	-0.083
Mof_H 	H 	0.0705	0.3868	0.675	0.053
Mof_C 	C 	0.0382	0.3208	0.7147	0.027
Mof_H 	H 	0.0647	0.3201	0.7417	0.019
Mof_C 	C 	0.042	0.6381	0.3248	-0.085
Mof_H 	H 	0.0705	0.6132	0.325	0.051
Mof_C 	C 	0.0382	0.6792	0.2853	0.026
Mof_H 	H 	0.0647	0.6799	0.2583	0.013
Mof_C 	C 	0.6752	0.958	0.6381	-0.027
Mof_H 	H 	0.675	0.9295	0.6132	0.066
Mof_C 	C 	0.7147	0.9618	0.6792	0.086
Mof_H 	H 	0.7417	0.9353	0.6799	0.033
Mof_C 	C 	0.3248	0.958	0.3619	-0.031
Mof_H 	H 	0.325	0.9295	0.3868	0.063
Mof_C 	C 	0.2853	0.9618	0.3208	0.095
Mof_H 	H 	0.2583	0.9353	0.3201	0.021
Mof_C 	C 	0.6752	0.042	0.3619	-0.083
Mof_H 	H 	0.675	0.0705	0.3868	0.053
Mof_C 	C 	0.7147	0.0382	0.3208	0.027
Mof_H 	H 	0.7417	0.0647	0.3201	0.019
Mof_C 	C 	0.3248	0.042	0.6381	-0.085
Mof_H 	H 	0.325	0.0705	0.6132	0.051
Mof_C 	C 	0.2853	0.0382	0.6792	0.026
Mof_H 	H 	0.2583	0.0647	0.6799	0.013
Mof_C 	C 	0.6752	0.6381	0.042	-0.081
Mof_H 	H 	0.675	0.6132	0.0705	0.054
Mof_C 	C 	0.7147	0.6792	0.0382	0.023
Mof_H 	H 	0.7417	0.6799	0.0647	0.022
Mof_C 	C 	0.3248	0.3619	0.042	-0.087
Mof_H 	H 	0.325	0.3868	0.0705	0.05
Mof_C 	C 	0.2853	0.3208	0.0382	0.03
Mof_H 	H 	0.2583	0.3201	0.0647	0.01
Mof_C 	C 	0.6752	0.3619	0.958	-0.028
Mof_H 	H 	0.675	0.3868	0.9295	0.065
Mof_C 	C 	0.7147	0.3208	0.9618	0.091
Mof_H 	H 	0.7417	0.3201	0.9353	0.03
Mof_C 	C 	0.3248	0.6381	0.958	-0.03
Mof_H 	H 	0.325	0.6132	0.9295	0.063
Mof_C 	C 	0.2853	0.6792	0.9618	0.09
Mof_H 	H 	0.2583	0.6799	0.9353	0.025
Mof_C 	C 	0.6381	0.958	0.3248	-0.03
Mof_H 	H 	0.6132	0.9295	0.325	0.063
Mof_C 	C 	0.6792	0.9618	0.2853	0.09
Mof_H 	H 	0.6799	0.9353	0.2583	0.025
Mof_C 	C 	0.3619	0.958	0.6752	-0.028
Mof_H 	H 	0.3868	0.9295	0.675	0.065
Mof_C 	C 	0.3208	0.9618	0.7147	0.091
Mof_H 	H 	0.3201	0.9353	0.7417	0.03
Mof_C 	C 	0.3619	0.042	0.3248	-0.087
Mof_H 	H 	0.3868	0.0705	0.325	0.05
Mof_C 	C 	0.3208	0.0382	0.2853	0.03
Mof_H 	H 	0.3201	0.0647	0.2583	0.01
Mof_C 	C 	0.6381	0.042	0.6752	-0.081
Mof_H 	H 	0.6132	0.0705	0.675	0.054
Mof_C 	C 	0.6792	0.0382	0.7147	0.023
Mof_H 	H 	0.6799	0.0647	0.7417	0.022
Mof_C 	C 	0.958	0.6752	0.3619	-0.028
Mof_H 	H 	0.9295	0.675	0.3868	0.065
Mof_C 	C 	0.9618	0.7147	0.3208	0.091
Mof_H 	H 	0.9353	0.7417	0.3201	0.03
Mof_C 	C 	0.958	0.3248	0.6381	-0.03
Mof_H 	H 	0.9295	0.325	0.6132	0.063
Mof_C 	C 	0.9618	0.2853	0.6792	0.09
Mof_H 	H 	0.9353	0.2583	0.6799	0.025
Mof_C 	C 	0.042	0.6752	0.6381	-0.081
Mof_H 	H 	0.0705	0.675	0.6132	0.054
Mof_C 	C 	0.0382	0.7147	0.6792	0.023
Mof_H 	H 	0.0647	0.7417	0.6799	0.022
Mof_C 	C 	0.042	0.3248	0.3619	-0.087
Mof_H 	H 	0.0705	0.325	0.3868	0.05
Mof_C 	C 	0.0382	0.2853	0.3208	0.03
Mof_H 	H 	0.0647	0.2583	0.3201	0.01
Mof_C 	C 	0.3619	0.3248	0.042	-0.087
Mof_H 	H 	0.3868	0.325	0.0705	0.05
Mof_C 	C 	0.3208	0.2853	0.0382	0.03
Mof_H 	H 	0.3201	0.2583	0.0647	0.01
Mof_C 	C 	0.6381	0.6752	0.042	-0.081
Mof_H 	H 	0.6132	0.675	0.0705	0.054
Mof_C 	C 	0.6792	0.7147	0.0382	0.023
Mof_H 	H 	0.6799	0.7417	0.0647	0.022
Mof_C 	C 	0.6381	0.3248	0.958	-0.03
Mof_H 	H 	0.6132	0.325	0.9295	0.063
Mof_C 	C 	0.6792	0.2853	0.9618	0.09
Mof_H 	H 	0.6799	0.2583	0.9353	0.025
Mof_C 	C 	0.3619	0.6752	0.958	-0.028
Mof_H 	H 	0.3868	0.675	0.9295	0.065
Mof_C 	C 	0.3208	0.7147	0.9618	0.091
Mof_H 	H 	0.3201	0.7417	0.9353	0.03
Mof_C 	C 	0.042	0.3619	0.3248	-0.087
Mof_H 	H 	0.0705	0.3868	0.325	0.05
Mof_C 	C 	0.0382	0.3208	0.2853	0.03
Mof_H 	H 	0.0647	0.3201	0.2583	0.01
Mof_C 	C 	0.042	0.6381	0.6752	-0.081
Mof_H 	H 	0.0705	0.6132	0.675	0.054
Mof_C 	C 	0.0382	0.6792	0.7147	0.023
Mof_H 	H 	0.0647	0.6799	0.7417	0.022
Mof_C 	C 	0.958	0.6381	0.3248	-0.03
Mof_H 	H 	0.9295	0.6132	0.325	0.063
Mof_C 	C 	0.9618	0.6792	0.2853	0.09
Mof_H 	H 	0.9353	0.6799	0.2583	0.025
Mof_C 	C 	0.958	0.3619	0.6752	-0.028
Mof_H 	H 	0.9295	0.3868	0.675	0.065
Mof_C 	C 	0.9618	0.3208	0.7147	0.091
Mof_H 	H 	0.9353	0.3201	0.7417	0.03
Mof_C 	C 	0.3248	0.042	0.3619	-0.087
Mof_H 	H 	0.325	0.0705	0.3868	0.05
Mof_C 	C 	0.2853	0.0382	0.3208	0.03
Mof_H 	H 	0.2583	0.0647	0.3201	0.01
Mof_C 	C 	0.6752	0.042	0.6381	-0.081
Mof_H 	H 	0.675	0.0705	0.6132	0.054
Mof_C 	C 	0.7147	0.0382	0.6792	0.023
Mof_H 	H 	0.7417	0.0647	0.6799	0.022
Mof_C 	C 	0.3248	0.958	0.6381	-0.03
Mof_H 	H 	0.325	0.9295	0.6132	0.063
Mof_C 	C 	0.2853	0.9618	0.6792	0.09
Mof_H 	H 	0.2583	0.9353	0.6799	0.025
Mof_C 	C 	0.6752	0.958	0.3619	-0.028
Mof_H 	H 	0.675	0.9295	0.3868	0.065
Mof_C 	C 	0.7147	0.9618	0.3208	0.091
Mof_H 	H 	0.7417	0.9353	0.3201	0.03
Mof_C 	C 	0.3248	0.3619	0.958	-0.031
Mof_H 	H 	0.325	0.3868	0.9295	0.063
Mof_C 	C 	0.2853	0.3208	0.9618	0.095
Mof_H 	H 	0.2583	0.3201	0.9353	0.021
Mof_C 	C 	0.6752	0.6381	0.958	-0.027
Mof_H 	H 	0.675	0.6132	0.9295	0.066
Mof_C 	C 	0.7147	0.6792	0.9618	0.086
Mof_H 	H 	0.7417	0.6799	0.9353	0.033
Mof_C 	C 	0.3248	0.6381	0.042	-0.085
Mof_H 	H 	0.325	0.6132	0.0705	0.051
Mof_C 	C 	0.2853	0.6792	0.0382	0.026
Mof_H 	H 	0.2583	0.6799	0.0647	0.013
Mof_C 	C 	0.6752	0.3619	0.042	-0.083
Mof_H 	H 	0.675	0.3868	0.0705	0.053
Mof_C 	C 	0.7147	0.3208	0.0382	0.027
Mof_H 	H 	0.7417	0.3201	0.0647	0.019
Mof_C 	C 	0.3619	0.042	0.6752	-0.083
Mof_H 	H 	0.3868	0.0705	0.675	0.053
Mof_C 	C 	0.3208	0.0382	0.7147	0.027
Mof_H 	H 	0.3201	0.0647	0.7417	0.019
Mof_C 	C 	0.6381	0.042	0.3248	-0.085
Mof_H 	H 	0.6132	0.0705	0.325	0.051
Mof_C 	C 	0.6792	0.0382	0.2853	0.026
Mof_H 	H 	0.6799	0.0647	0.2583	0.013
Mof_C 	C 	0.6381	0.958	0.6752	-0.027
Mof_H 	H 	0.6132	0.9295	0.675	0.066
Mof_C 	C 	0.6792	0.9618	0.7147	0.086
Mof_H 	H 	0.6799	0.9353	0.7417	0.033
Mof_C 	C 	0.3619	0.958	0.3248	-0.031
Mof_H 	H 	0.3868	0.9295	0.325	0.063
Mof_C 	C 	0.3208	0.9618	0.2853	0.095
Mof_H 	H 	0.3201	0.9353	0.2583	0.021
Mof_C 	C 	0.042	0.3248	0.6381	-0.085
Mof_H 	H 	0.0705	0.325	0.6132	0.051
Mof_C 	C 	0.0382	0.2853	0.6792	0.026
Mof_H 	H 	0.0647	0.2583	0.6799	0.013
Mof_C 	C 	0.042	0.6752	0.3619	-0.083
Mof_H 	H 	0.0705	0.675	0.3868	0.053
Mof_C 	C 	0.0382	0.7147	0.3208	0.027
Mof_H 	H 	0.0647	0.7417	0.3201	0.019
Mof_C 	C 	0.958	0.3248	0.3619	-0.031
Mof_H 	H 	0.9295	0.325	0.3868	0.063
Mof_C 	C 	0.9618	0.2853	0.3208	0.095
Mof_H 	H 	0.9353	0.2583	0.3201	0.021
Mof_C 	C 	0.958	0.6752	0.6381	-0.027
Mof_H 	H 	0.9295	0.675	0.6132	0.066
Mof_C 	C 	0.9618	0.7147	0.6792	0.086
Mof_H 	H 	0.9353	0.7417	0.6799	0.033
Mof_Zr	Zr	-0	0.90218	-0	3.195
Mof_Zr	Zr	-0	0.09782	-0	3.195
Mof_Zr	Zr	-2.80334e-33	0	0.90218	3.195
Mof_Zr	Zr	3.66766e-34	0	0.09782	3.195
Mof_Zr	Zr	0.90218	0	-0	3.195
Mof_Zr	Zr	0.09782	0	-0	3.195
Mof_Co	Co	0.5	0.5	-0	1.099
Mof_Co	Co	1.8747e-33	0.5	0.5	1.099
Mof_Co	Co	0.5	0	0.5	1.099
Mof_O 	O 	0.95157	0.95157	0.95157	-1.119
Mof_O 	O 	0.04843	0.04843	0.95157	-1.234
Mof_O 	O 	0.04843	0.95157	0.04843	-1.234
Mof_O 	O 	0.95157	0.04843	0.04843	-1.234
Mof_O 	O 	0.95157	0.95157	0.04843	-1.174
Mof_O 	O 	0.04843	0.04843	0.04843	-1.299
Mof_O 	O 	0.95157	0.04843	0.95157	-1.174
Mof_O 	O 	0.04843	0.95157	0.95157	-1.174
Mof_O 	O 	0.92379	0.85908	-0	-0.612
Mof_C 	C 	0.8467	0.7814	-0	0.167
Mof_H 	H 	0.882	0.7713	-0	-0.001
Mof_C 	C 	0.807	0.7426	-0	-0.277
Mof_H 	H 	0.8164	0.7072	-0	0.121
Mof_C 	C 	0.61	0.5433	-0	0.082
Mof_C 	C 	0.664	0.5269	-0	-0.09
Mof_H 	H 	0.6935	0.5488	-0	0.046
Mof_O 	O 	0.07621	0.14092	-0	-0.667
Mof_C 	C 	0.1533	0.2186	-0	0.19
Mof_H 	H 	0.118	0.2287	-0	-0.036
Mof_C 	C 	0.193	0.2574	-0	-0.314
Mof_H 	H 	0.1836	0.2928	-0	0.117
Mof_C 	C 	0.39	0.4567	-0	0.081
Mof_C 	C 	0.336	0.4731	-0	-0.092
Mof_H 	H 	0.3065	0.4512	-0	0.04
Mof_O 	O 	0.07621	0.85908	-0	-0.661
Mof_C 	C 	0.1533	0.7814	-0	0.178
Mof_H 	H 	0.118	0.7713	-0	-0.03
Mof_C 	C 	0.193	0.7426	-0	-0.297
Mof_H 	H 	0.1836	0.7072	-0	0.113
Mof_C 	C 	0.39	0.5433	-0	0.081
Mof_C 	C 	0.336	0.5269	-0	-0.092
Mof_H 	H 	0.3065	0.5488	-0	0.04
Mof_O 	O 	0.92379	0.14092	-0	-0.616
Mof_C 	C 	0.8467	0.2186	-0	0.179
Mof_H 	H 	0.882	0.2287	-0	-0.006
Mof_C 	C 	0.807	0.2574	-0	-0.292
Mof_H 	H 	0.8164	0.2928	-0	0.125
Mof_C 	C 	0.61	0.4567	-0	0.082
Mof_C 	C 	0.664	0.4731	-0	-0.09
Mof_H 	H 	0.6935	0.4512	-0	0.046
Mof_O 	O 	3.22103e-33	0.92379	0.85908	-0.612
Mof_C 	C 	-3.2562e-33	0.8467	0.7814	0.167
Mof_H 	H 	2.76358e-32	0.882	0.7713	-0.001
Mof_C 	C 	8.97028e-33	0.807	0.7426	-0.277
Mof_H 	H 	8.83755e-33	0.8164	0.7072	0.121
Mof_C 	C 	1.4409e-32	0.61	0.5433	0.082
Mof_C 	C 	1.97556e-33	0.664	0.5269	-0.09
Mof_H 	H 	8.24365e-33	0.6935	0.5488	0.046
Mof_O 	O 	5.28365e-34	0.07621	0.14092	-0.667
Mof_C 	C 	2.36611e-33	0.1533	0.2186	0.19
Mof_H 	H 	8.57488e-34	0.118	0.2287	-0.036
Mof_C 	C 	4.05808e-33	0.193	0.2574	-0.314
Mof_H 	H 	4.19081e-33	0.1836	0.2928	0.117
Mof_C 	C 	1.71235e-33	0.39	0.4567	0.081
Mof_C 	C 	7.95982e-33	0.336	0.4731	-0.092
Mof_H 	H 	4.78472e-33	0.3065	0.4512	0.04
Mof_O 	O 	9.40701e-33	0.07621	0.85908	-0.661
Mof_C 	C 	2.92978e-33	0.1533	0.7814	0.178
Mof_H 	H 	-3.29406e-33	0.118	0.7713	-0.03
Mof_C 	C 	2.7843e-33	0.193	0.7426	-0.297
Mof_H 	H 	2.65158e-33	0.1836	0.7072	0.113
Mof_C 	C 	1.4409e-32	0.39	0.5433	0.081
Mof_C 	C 	8.16153e-33	0.336	0.5269	-0.092
Mof_H 	H 	2.05767e-33	0.3065	0.5488	0.04
Mof_O 	O 	6.71434e-33	0.92379	0.14092	-0.616
Mof_C 	C 	-3.81986e-33	0.8467	0.2186	0.179
Mof_H 	H 	1.32294e-32	0.882	0.2287	-0.006
Mof_C 	C 	4.05808e-33	0.807	0.2574	-0.292
Mof_H 	H 	4.19081e-33	0.8164	0.2928	0.125
Mof_C 	C 	1.71235e-33	0.61	0.4567	0.082
Mof_C 	C 	1.77384e-33	0.664	0.4731	-0.09
Mof_H 	H 	-7.58723e-33	0.6935	0.4512	0.046
Mof_O 	O 	0.85908	0	0.92379	-0.612
Mof_C 	C 	0.7814	0	0.8467	0.167
Mof_H 	H 	0.7713	1.2372e-32	0.882	-0.001
Mof_C 	C 	0.7426	0	0.807	-0.277
Mof_H 	H 	0.7072	6.18598e-33	0.8164	0.121
Mof_C 	C 	0.5433	0	0.61	0.082
Mof_C 	C 	0.5269	0	0.664	-0.09
Mof_H 	H 	0.5488	0	0.6935	0.046
Mof_O 	O 	0.14092	0	0.07621	-0.667
Mof_C 	C 	0.2186	1.54649e-33	0.1533	0.19
Mof_H 	H 	0.2287	1.54649e-33	0.118	-0.036
Mof_C 	C 	0.2574	0	0.193	-0.314
Mof_H 	H 	0.2928	0	0.1836	0.117
Mof_C 	C 	0.4567	3.09299e-33	0.39	0.081
Mof_C 	C 	0.4731	3.09299e-33	0.336	-0.092
Mof_H 	H 	0.4512	-3.09299e-33	0.3065	0.04
Mof_O 	O 	0.85908	0	0.07621	-0.661
Mof_C 	C 	0.7814	1.54649e-33	0.1533	0.178
Mof_H 	H 	0.7713	1.54649e-33	0.118	-0.03
Mof_C 	C 	0.7426	0	0.193	-0.297
Mof_H 	H 	0.7072	0	0.1836	0.113
Mof_C 	C 	0.5433	3.09299e-33	0.39	0.081
Mof_C 	C 	0.5269	3.09299e-33	0.336	-0.092
Mof_H 	H 	0.5488	-3.09299e-33	0.3065	0.04
Mof_O 	O 	0.14092	0	0.92379	-0.616
Mof_C 	C 	0.2186	0	0.8467	0.179
Mof_H 	H 	0.2287	1.2372e-32	0.882	-0.006
Mof_C 	C 	0.2574	0	0.807	-0.292
Mof_H 	H 	0.2928	6.18598e-33	0.8164	0.125
Mof_C 	C 	0.4567	0	0.61	0.082
Mof_C 	C 	0.4731	0	0.664	-0.09
Mof_H 	H 	0.4512	0	0.6935	0.046
Mof_O 	O 	0.85908	0.92379	-0	-0.612
Mof_C 	C 	0.7814	0.8467	-0	0.167
Mof_H 	H 	0.7713	0.882	-0	-0.001
Mof_C 	C 	0.7426	0.807	-0	-0.277
Mof_H 	H 	0.7072	0.8164	-0	0.121
Mof_C 	C 	0.5433	0.61	-0	0.082
Mof_C 	C 	0.5269	0.664	-0	-0.09
Mof_H 	H 	0.5488	0.6935	-0	0.046
Mof_O 	O 	0.14092	0.07621	-0	-0.667
Mof_C 	C 	0.2186	0.1533	-0	0.19
Mof_H 	H 	0.2287	0.118	-0	-0.036
Mof_C 	C 	0.2574	0.193	-0	-0.314
Mof_H 	H 	0.2928	0.1836	-0	0.117
Mof_C 	C 	0.4567	0.39	-0	0.081
Mof_C 	C 	0.4731	0.336	-0	-0.092
Mof_H 	H 	0.4512	0.3065	-0	0.04
Mof_O 	O 	0.85908	0.07621	-0	-0.661
Mof_C 	C 	0.7814	0.1533	-0	0.178
Mof_H 	H 	0.7713	0.118	-0	-0.03
Mof_C 	C 	0.7426	0.193	-0	-0.297
Mof_H 	H 	0.7072	0.1836	-0	0.113
Mof_C 	C 	0.5433	0.39	-0	0.081
Mof_C 	C 	0.5269	0.336	-0	-0.092
Mof_H 	H 	0.5488	0.3065	-0	0.04
Mof_O 	O 	0.14092	0.92379	-0	-0.616
Mof_C 	C 	0.2186	0.8467	-0	0.179
Mof_H 	H 	0.2287	0.882	-0	-0.006
Mof_C 	C 	0.2574	0.807	-0	-0.292
Mof_H 	H 	0.2928	0.8164	-0	0.125
Mof_C 	C 	0.4567	0.61	-0	0.082
Mof_C 	C 	0.4731	0.664	-0	-0.09
Mof_H 	H 	0.4512	0.6935	-0	0.046
Mof_O 	O 	0.92379	0	0.14092	-0.616
Mof_C 	C 	0.8467	1.54649e-33	0.2186	0.179
Mof_H 	H 	0.882	3.09299e-33	0.2287	-0.006
Mof_C 	C 	0.807	0	0.2574	-0.292
Mof_H 	H 	0.8164	0	0.2928	0.125
Mof_C 	C 	0.61	-6.18598e-33	0.4567	0.082
Mof_C 	C 	0.664	0	0.4731	-0.09
Mof_H 	H 	0.6935	-3.09299e-33	0.4512	0.046
Mof_O 	O 	0.07621	6.18598e-33	0.85908	-0.661
Mof_C 	C 	0.1533	6.18598e-33	0.7814	0.178
Mof_H 	H 	0.118	6.18598e-33	0.7713	-0.03
Mof_C 	C 	0.193	6.18598e-33	0.7426	-0.297
Mof_H 	H 	0.1836	0	0.7072	0.113
Mof_C 	C 	0.39	6.18598e-33	0.5433	0.081
Mof_C 	C 	0.336	0	0.5269	-0.092
Mof_H 	H 	0.3065	0	0.5488	0.04
Mof_O 	O 	0.07621	0	0.14092	-0.667
Mof_C 	C 	0.1533	1.54649e-33	0.2186	0.19
Mof_H 	H 	0.118	3.09299e-33	0.2287	-0.036
Mof_C 	C 	0.193	0	0.2574	-0.314
Mof_H 	H 	0.1836	0	0.2928	0.117
Mof_C 	C 	0.39	-6.18598e-33	0.4567	0.081
Mof_C 	C 	0.336	0	0.4731	-0.092
Mof_H 	H 	0.3065	-3.09299e-33	0.4512	0.04
Mof_O 	O 	0.92379	6.18598e-33	0.85908	-0.612
Mof_C 	C 	0.8467	6.18598e-33	0.7814	0.167
Mof_H 	H 	0.882	6.18598e-33	0.7713	-0.001
Mof_C 	C 	0.807	6.18598e-33	0.7426	-0.277
Mof_H 	H 	0.8164	0	0.7072	0.121
Mof_C 	C 	0.61	6.18598e-33	0.5433	0.082
Mof_C 	C 	0.664	0	0.5269	-0.09
Mof_H 	H 	0.6935	0	0.5488	0.046
Mof_O 	O 	1.26577e-32	0.85908	0.07621	-0.661
Mof_C 	C 	5.21426e-33	0.7814	0.1533	0.178
Mof_H 	H 	-1.10406e-33	0.7713	0.118	-0.03
Mof_C 	C 	2.27013e-33	0.7426	0.193	-0.297
Mof_H 	H 	2.23488e-33	0.7072	0.1836	0.113
Mof_C 	C 	1.38342e-32	0.5433	0.39	0.081
Mof_C 	C 	7.44577e-33	0.5269	0.336	-0.092
Mof_H 	H 	1.14919e-33	0.5488	0.3065	0.04
Mof_O 	O 	3.46366e-33	0.14092	0.92379	-0.616
Mof_C 	C 	-3.01136e-33	0.2186	0.8467	0.179
Mof_H 	H 	9.49295e-33	0.2287	0.882	-0.006
Mof_C 	C 	3.02577e-33	0.2574	0.807	-0.292
Mof_H 	H 	3.06101e-33	0.2928	0.8164	0.125
Mof_C 	C 	2.28713e-33	0.4567	0.61	0.082
Mof_C 	C 	-3.69637e-33	0.4731	0.664	-0.09
Mof_H 	H 	-9.77174e-33	0.4512	0.6935	0.046
Mof_O 	O 	3.46366e-33	0.85908	0.92379	-0.612
Mof_C 	C 	-3.01136e-33	0.7814	0.8467	0.167
Mof_H 	H 	2.80509e-32	0.7713	0.882	-0.001
Mof_C 	C 	9.21174e-33	0.7426	0.807	-0.277
Mof_H 	H 	9.24699e-33	0.7072	0.8164	0.121
Mof_C 	C 	8.47311e-33	0.5433	0.61	0.082
Mof_C 	C 	-3.69637e-33	0.5269	0.664	-0.09
Mof_H 	H 	8.78618e-33	0.5488	0.6935	0.046
Mof_O 	O 	2.85742e-34	0.14092	0.07621	-0.667
Mof_C 	C 	3.66777e-33	0.2186	0.1533	0.19
Mof_H 	H 	1.98892e-33	0.2287	0.118	-0.036
Mof_C 	C 	2.27013e-33	0.2574	0.193	-0.314
Mof_H 	H 	5.32787e-33	0.2928	0.1836	0.117
Mof_C 	C 	1.46227e-33	0.4567	0.39	0.081
Mof_C 	C 	7.44577e-33	0.4731	0.336	-0.092
Mof_H 	H 	4.24218e-33	0.4512	0.3065	0.04
Mof_C 	C 	0.8757	0.8757	-0	0.497
Mof_C 	C 	0.834	0.834	-0	-0.217
Mof_C 	C 	0.7557	0.7557	-0	0.246
Mof_C 	C 	0.7173	0.7173	-0	-0.254
Mof_C 	C 	0.5951	0.5951	-0	-0.135
Mof_C 	C 	0.636	0.636	-0	0.014
Mof_C 	C 	0.1243	0.1243	-0	0.514
Mof_C 	C 	0.166	0.166	-0	-0.262
Mof_C 	C 	0.2443	0.2443	-0	0.27
Mof_C 	C 	0.2827	0.2827	-0	-0.281
Mof_C 	C 	0.4049	0.4049	-0	-0.138
Mof_C 	C 	0.364	0.364	-0	0.017
Mof_C 	C 	0.1243	0.8757	-0	0.505
Mof_C 	C 	0.166	0.834	-0	-0.239
Mof_C 	C 	0.2443	0.7557	-0	0.258
Mof_C 	C 	0.2827	0.7173	-0	-0.267
Mof_C 	C 	0.4049	0.5951	-0	-0.137
Mof_C 	C 	0.364	0.636	-0	0.015
Mof_C 	C 	0.8757	0.1243	-0	0.505
Mof_C 	C 	0.834	0.166	-0	-0.239
Mof_C 	C 	0.7557	0.2443	-0	0.258
Mof_C 	C 	0.7173	0.2827	-0	-0.267
Mof_C 	C 	0.5951	0.4049	-0	-0.137
Mof_C 	C 	0.636	0.364	-0	0.015
Mof_C 	C 	1.56553e-32	0.8757	0.8757	0.497
Mof_C 	C 	3.127e-33	0.834	0.834	-0.217
Mof_C 	C 	2.83342e-33	0.7557	0.7557	0.246
Mof_C 	C 	2.68944e-33	0.7173	0.7173	-0.254
Mof_C 	C 	-3.95471e-33	0.5951	0.5951	-0.135
Mof_C 	C 	2.38462e-33	0.636	0.636	0.014
Mof_C 	C 	4.6605e-34	0.1243	0.1243	0.514
Mof_C 	C 	6.224e-34	0.166	0.166	-0.262
Mof_C 	C 	9.15978e-34	0.2443	0.2443	0.27
Mof_C 	C 	1.05996e-33	0.2827	0.2827	-0.281
Mof_C 	C 	7.70411e-33	0.4049	0.4049	-0.138
Mof_C 	C 	1.36478e-33	0.364	0.364	0.017
Mof_C 	C 	9.46932e-33	0.1243	0.8757	0.505
Mof_C 	C 	3.127e-33	0.166	0.834	-0.239
Mof_C 	C 	-9.53853e-33	0.2443	0.7557	0.258
Mof_C 	C 	-9.68251e-33	0.2827	0.7173	-0.267
Mof_C 	C 	-3.95471e-33	0.4049	0.5951	-0.137
Mof_C 	C 	-3.80136e-33	0.364	0.636	0.015
Mof_C 	C 	8.19852e-33	0.8757	0.1243	0.505
Mof_C 	C 	-9.24094e-34	0.834	0.166	-0.239
Mof_C 	C 	-5.27e-33	0.7557	0.2443	0.258
Mof_C 	C 	-5.12602e-33	0.7173	0.2827	-0.267
Mof_C 	C 	4.61112e-33	0.5951	0.4049	-0.137
Mof_C 	C 	-1.72821e-33	0.636	0.364	0.015
Mof_C 	C 	0.8757	6.18598e-33	0.8757	0.497
Mof_C 	C 	0.834	0	0.834	-0.217
Mof_C 	C 	0.7557	0	0.7557	0.246
Mof_C 	C 	0.7173	0	0.7173	-0.254
Mof_C 	C 	0.5951	0	0.5951	-0.135
Mof_C 	C 	0.636	0	0.636	0.014
Mof_C 	C 	0.1243	0	0.1243	0.514
Mof_C 	C 	0.166	0	0.166	-0.262
Mof_C 	C 	0.2443	0	0.2443	0.27
Mof_C 	C 	0.2827	0	0.2827	-0.281
Mof_C 	C 	0.4049	3.09299e-33	0.4049	-0.138
Mof_C 	C 	0.364	0	0.364	0.017
Mof_C 	C 	0.8757	0	0.1243	0.505
Mof_C 	C 	0.834	0	0.166	-0.239
Mof_C 	C 	0.7557	0	0.2443	0.258
Mof_C 	C 	0.7173	0	0.2827	-0.267
Mof_C 	C 	0.5951	3.09299e-33	0.4049	-0.137
Mof_C 	C 	0.636	0	0.364	0.015
Mof_C 	C 	0.1243	6.18598e-33	0.8757	0.505
Mof_C 	C 	0.166	0	0.834	-0.239
Mof_C 	C 	0.2443	0	0.7557	0.258
Mof_C 	C 	0.2827	0	0.7173	-0.267
Mof_C 	C 	0.4049	0	0.5951	-0.137
Mof_C 	C 	0.364	0	0.636	0.015
Mof_N 	N 	0.5778	0.5	-0	-0.288
Mof_N 	N 	0.4222	0.5	-0	-0.289
Mof_N 	N 	1.42467e-32	0.5778	0.5	-0.288
Mof_N 	N 	1.8747e-33	0.4222	0.5	-0.289
Mof_N 	N 	0.5	6.18598e-33	0.5778	-0.288
Mof_N 	N 	0.5	3.09299e-33	0.4222	-0.289
Mof_N 	N 	0.5	0.5778	-0	-0.288
Mof_N 	N 	0.5	0.4222	-0	-0.289
Mof_N 	N 	0.5778	0	0.5	-0.288
Mof_N 	N 	0.4222	0	0.5	-0.289
Mof_N 	N 	1.583e-33	0.5	0.4222	-0.289
Mof_N 	N 	8.35238e-33	0.5	0.5778	-0.288
_end
