data_functionalizedCrystal
_audit_creation_method	'EQeq! by Chris Wilmer'
_symmetry_space_group_name_H-M	'P1'
_symmetry_Int_Tables_number	1
_symmetry_cell_setting	triclinic
loop_
_symmetry_equiv_pos_as_xyz
  x,y,z
_cell_length_a	16.6008
_cell_length_b	16.6008
_cell_length_c	17.035
_cell_angle_alpha	60.8385
_cell_angle_beta	60.8385
_cell_angle_gamma	89.9991
loop_
_atom_site_label
_atom_site_type_symbol
_atom_site_fract_x
_atom_site_fract_y
_atom_site_fract_z
_atom_site_charge
Mof_Co	Co	0.44722	0.44722	0.10556	1.136
Mof_Co	Co	-0	0	-0	1.137
Mof_Co	Co	0.55278	0.55278	0.89444	1.15
Mof_H 	H 	0.5289	0.6774	0.7154	0.02
Mof_H 	H 	0.7015	0.1375	0.161	0.083
Mof_H 	H 	0.9075	0.9075	0.3572	0.059
Mof_H 	H 	0.2647	0.0925	0.6428	0.051
Mof_H 	H 	0.9942	0.9942	0.1778	0.02
Mof_H 	H 	0.2443	0.3226	0.2846	0.015
Mof_H 	H 	0.0925	0.0925	0.6428	0.048
Mof_H 	H 	0.2647	0.2647	0.6428	0.054
Mof_H 	H 	0.1375	0.7015	0.161	0.083
Mof_H 	H 	0.6774	0.5289	0.7154	0.02
Mof_H 	H 	0.1498	0.2278	0.4712	0.024
Mof_H 	H 	0.9266	0.2976	-0	0.041
Mof_H 	H 	0.3226	0.2443	0.2846	0.015
Mof_H 	H 	0.6072	0.5289	0.7154	0.019
Mof_H 	H 	0.0734	0.2976	-0	0.066
Mof_H 	H 	0.3991	0.3991	0.8358	0.003
Mof_H 	H 	0.621	0.7722	0.5288	0.03
Mof_H 	H 	0.301	0.379	0.4712	0.028
Mof_H 	H 	0.2278	0.379	0.4712	0.027
Mof_H 	H 	0.172	0.172	0.8222	0.016
Mof_H 	H 	0.2443	0.3928	0.2846	0.016
Mof_H 	H 	0.621	0.699	0.5288	0.029
Mof_H 	H 	0.7651	0.7651	0.8358	0.007
Mof_H 	H 	0.7557	0.6072	0.7154	0.02
Mof_H 	H 	0.2976	0.0734	-0	0.066
Mof_H 	H 	0.7024	0.9266	-0	0.043
Mof_H 	H 	0.7353	0.9075	0.3572	0.057
Mof_H 	H 	0.3928	0.2443	0.2846	0.016
Mof_H 	H 	0.828	0.828	0.1778	0.005
Mof_H 	H 	0.6072	0.7557	0.7154	0.02
Mof_H 	H 	0.301	0.1498	0.4712	0.026
Mof_H 	H 	0.9075	0.7353	0.3572	0.057
Mof_H 	H 	0.6009	0.2349	0.1642	0.007
Mof_H 	H 	0.7722	0.621	0.5288	0.03
Mof_H 	H 	0.2349	0.6009	0.1642	0.007
Mof_H 	H 	0.2976	0.9266	-0	0.041
Mof_H 	H 	0.3928	0.4711	0.2846	0.017
Mof_H 	H 	0.379	0.2278	0.4712	0.027
Mof_H 	H 	0.4711	0.3226	0.2846	0.016
Mof_H 	H 	0.699	0.621	0.5288	0.029
Mof_H 	H 	0.379	0.301	0.4712	0.028
Mof_H 	H 	0.0734	0.7024	-0	0.066
Mof_H 	H 	0.7722	0.8502	0.5288	0.032
Mof_H 	H 	0.3226	0.4711	0.2846	0.016
Mof_H 	H 	0.172	0.0058	0.8222	0.008
Mof_H 	H 	0.2349	0.2349	0.1642	0.005
Mof_H 	H 	0.0058	0.172	0.8222	0.008
Mof_H 	H 	0.0058	0.0058	0.8222	0
Mof_H 	H 	0.2985	0.8625	0.839	0.089
Mof_H 	H 	0.3991	0.7651	0.8358	0.005
Mof_H 	H 	0.7651	0.3991	0.8358	0.005
Mof_H 	H 	0.6774	0.7557	0.7154	0.021
Mof_H 	H 	0.699	0.8502	0.5288	0.031
Mof_H 	H 	0.5289	0.6072	0.7154	0.019
Mof_H 	H 	0.4711	0.3928	0.2846	0.017
Mof_H 	H 	0.2278	0.1498	0.4712	0.024
Mof_H 	H 	0.8625	0.2985	0.839	0.089
Mof_H 	H 	0.0925	0.2647	0.6428	0.051
Mof_H 	H 	0.1375	0.1375	0.161	0.078
Mof_H 	H 	0.8502	0.7722	0.5288	0.032
Mof_H 	H 	0.7557	0.6774	0.7154	0.021
Mof_H 	H 	0.7024	0.0734	-0	0.066
Mof_H 	H 	0.2985	0.2985	0.839	0.084
Mof_H 	H 	0.9266	0.7024	-0	0.043
Mof_H 	H 	0.8625	0.8625	0.839	0.093
Mof_H 	H 	0.7015	0.7015	0.161	0.088
Mof_H 	H 	0.828	0.9942	0.1778	0.012
Mof_H 	H 	0.6009	0.6009	0.1642	0.009
Mof_H 	H 	0.9942	0.828	0.1778	0.012
Mof_H 	H 	0.8502	0.699	0.5288	0.031
Mof_H 	H 	0.1498	0.301	0.4712	0.026
Mof_H 	H 	0.7353	0.7353	0.3572	0.053
Mof_C 	C 	0.14462	0.14462	-0	-0.163
Mof_C 	C 	0.2161	0.3041	0.4342	-0.029
Mof_C 	C 	0.6732	0.3268	-0	-0.202
Mof_C 	C 	0.83092	0.06499	-0	0.113
Mof_C 	C 	0.11127	0.11127	0.6774	-0.091
Mof_C 	C 	0.7514	0.34568	0.90292	0.139
Mof_C 	C 	0.96058	0.74844	-0	-0.037
Mof_C 	C 	0.6959	0.6503	0.5658	-0.029
Mof_C 	C 	0.728	0.6824	0.6764	0.006
Mof_C 	C 	0.6732	0.6732	-0	-0.2
Mof_C 	C 	0.21133	0.21133	0.6774	-0.088
Mof_C 	C 	0.25156	0.03942	-0	-0.143
Mof_C 	C 	0.16908	0.06499	-0	0.109
Mof_C 	C 	0.25311	0.25311	0.49378	0.015
Mof_C 	C 	0.4044	0.3176	0.3236	0.006
Mof_C 	C 	0.6412	0.728	0.6764	0.006
Mof_C 	C 	0.1911	0.71416	0.09474	-0.174
Mof_C 	C 	0.194	0.194	0.612	0.073
Mof_C 	C 	0.272	0.3176	0.3236	0.006
Mof_C 	C 	0.79059	0.79059	-0	0.098
Mof_C 	C 	0.8089	0.8089	0.90526	-0.132
Mof_C 	C 	0.3268	0.3268	-0	-0.204
Mof_C 	C 	0.79059	0.20941	-0	0.095
Mof_C 	C 	0.3898	0.6102	-0	0.354
Mof_C 	C 	0.7383	0.6503	0.5658	-0.03
Mof_C 	C 	0.93992	0.93992	0.21652	0.048
Mof_C 	C 	0.14462	0.85538	-0	-0.153
Mof_C 	C 	0.6102	0.3898	-0	0.354
Mof_C 	C 	0.8089	0.28584	0.90526	-0.129
Mof_C 	C 	0.6824	0.728	0.6764	0.006
Mof_C 	C 	0.28584	0.8089	0.90526	-0.129
Mof_C 	C 	0.20941	0.79059	-0	0.095
Mof_C 	C 	0.3176	0.272	0.3236	0.006
Mof_C 	C 	0.34568	0.7514	0.90292	0.139
Mof_C 	C 	0.6503	0.7383	0.5658	-0.03
Mof_C 	C 	0.21133	0.11127	0.6774	-0.091
Mof_C 	C 	0.34568	0.34568	0.90292	0.137
Mof_C 	C 	0.88873	0.78867	0.3226	-0.09
Mof_C 	C 	0.3268	0.6732	-0	-0.202
Mof_C 	C 	0.6959	0.7839	0.5658	-0.029
Mof_C 	C 	0.7514	0.7514	0.90292	0.14
Mof_C 	C 	0.93501	0.83092	-0	0.109
Mof_C 	C 	0.06008	0.06008	0.78348	0.048
Mof_C 	C 	0.11127	0.21133	0.6774	-0.091
Mof_C 	C 	0.2617	0.3497	0.4342	-0.029
Mof_C 	C 	0.5956	0.6412	0.6764	0.006
Mof_C 	C 	0.3041	0.2161	0.4342	-0.029
Mof_C 	C 	0.3588	0.4044	0.3236	0.006
Mof_C 	C 	0.74844	0.96058	-0	-0.037
Mof_C 	C 	0.78867	0.78867	0.3226	-0.091
Mof_C 	C 	0.93501	0.16908	-0	0.106
Mof_C 	C 	0.272	0.3588	0.3236	0.006
Mof_C 	C 	0.85538	0.85538	-0	-0.143
Mof_C 	C 	0.3588	0.272	0.3236	0.006
Mof_C 	C 	0.28584	0.28584	0.90526	-0.126
Mof_C 	C 	0.88873	0.88873	0.3226	-0.088
Mof_C 	C 	0.65432	0.2486	0.09708	0.096
Mof_C 	C 	0.3176	0.4044	0.3236	0.006
Mof_C 	C 	0.71416	0.71416	0.09474	-0.174
Mof_C 	C 	0.1911	0.1911	0.09474	-0.174
Mof_C 	C 	0.806	0.806	0.388	0.072
Mof_C 	C 	0.03942	0.74844	-0	-0.136
Mof_C 	C 	0.7839	0.7383	0.5658	-0.03
Mof_C 	C 	0.2617	0.2161	0.4342	-0.029
Mof_C 	C 	0.71416	0.1911	0.09474	-0.174
Mof_C 	C 	0.84356	0.84356	0.21652	0.049
Mof_C 	C 	0.7839	0.6959	0.5658	-0.029
Mof_C 	C 	0.6102	0.6102	-0	0.355
Mof_C 	C 	0.2486	0.65432	0.09708	0.096
Mof_C 	C 	0.96058	0.25156	-0	-0.033
Mof_C 	C 	0.84356	0.93992	0.21652	0.05
Mof_C 	C 	0.65432	0.65432	0.09708	0.098
Mof_C 	C 	0.06499	0.16908	-0	0.109
Mof_C 	C 	0.2161	0.2617	0.4342	-0.029
Mof_C 	C 	0.2486	0.2486	0.09708	0.094
Mof_C 	C 	0.93992	0.84356	0.21652	0.05
Mof_C 	C 	0.83092	0.93501	-0	0.109
Mof_C 	C 	0.3898	0.3898	-0	0.353
Mof_C 	C 	0.3497	0.2617	0.4342	-0.029
Mof_C 	C 	0.15644	0.15644	0.78348	0.047
Mof_C 	C 	0.3041	0.3497	0.4342	-0.03
Mof_C 	C 	0.78867	0.88873	0.3226	-0.09
Mof_C 	C 	0.3497	0.3041	0.4342	-0.03
Mof_C 	C 	0.4044	0.3588	0.3236	0.006
Mof_C 	C 	0.74689	0.74689	0.50622	0.017
Mof_C 	C 	0.25156	0.96058	-0	-0.033
Mof_C 	C 	0.85538	0.14462	-0	-0.153
Mof_C 	C 	0.06008	0.15644	0.78348	0.049
Mof_C 	C 	0.74844	0.03942	-0	-0.136
Mof_C 	C 	0.03942	0.25156	-0	-0.143
Mof_C 	C 	0.6412	0.5956	0.6764	0.006
Mof_C 	C 	0.20941	0.20941	-0	0.093
Mof_C 	C 	0.5956	0.6824	0.6764	0.005
Mof_C 	C 	0.7383	0.7839	0.5658	-0.03
Mof_C 	C 	0.15644	0.06008	0.78348	0.049
Mof_C 	C 	0.16908	0.93501	-0	0.106
Mof_C 	C 	0.6824	0.5956	0.6764	0.005
Mof_C 	C 	0.728	0.6412	0.6764	0.006
Mof_C 	C 	0.06499	0.83092	-0	0.113
Mof_C 	C 	0.6503	0.6959	0.5658	-0.029
Mof_N 	N 	2.03964e-21	0.88148	-0	-0.28
Mof_N 	N 	0.88148	0	-0	-0.28
Mof_N 	N 	0.63521	0.63521	0.72958	-0.224
Mof_N 	N 	0.36479	0.36479	0.27042	-0.223
Mof_N 	N 	2.54955e-22	0.11852	-0	-0.293
Mof_N 	N 	0.08026	0.08026	0.83948	-0.254
Mof_N 	N 	0.11852	0	-0	-0.293
Mof_N 	N 	0.91974	0.91974	0.16052	-0.254
Mof_O 	O 	0.54059	0.36945	0.08996	-0.455
Mof_O 	O 	0.63055	0.63055	0.91004	-0.418
Mof_O 	O 	0.45941	0.45941	0.91004	-0.418
Mof_O 	O 	0.54059	0.54059	0.08996	-0.455
Mof_O 	O 	0.45941	0.63055	0.91004	-0.418
Mof_O 	O 	0.63055	0.45941	0.91004	-0.418
Mof_O 	O 	0.36945	0.54059	0.08996	-0.455
Mof_O 	O 	0.36945	0.36945	0.08996	-0.456
_end
