data_functionalizedCrystal
_audit_creation_method	'EQeq! by Chris Wilmer'
_symmetry_space_group_name_H-M	'P1'
_symmetry_Int_Tables_number	1
_symmetry_cell_setting	triclinic
loop_
_symmetry_equiv_pos_as_xyz
  x,y,z
_cell_length_a	16.6335
_cell_length_b	16.6335
_cell_length_c	17.1914
_cell_angle_alpha	61.067
_cell_angle_beta	61.067
_cell_angle_gamma	89.9991
loop_
_atom_site_label
_atom_site_type_symbol
_atom_site_fract_x
_atom_site_fract_y
_atom_site_fract_z
_atom_site_charge
Mof_Zn	Zn	0.44223	0.44223	0.11554	1.215
Mof_Zn	Zn	0.55777	0.55777	0.88446	1.221
Mof_Fe	Fe	-0	0	-0	0.69
Mof_H 	H 	0.9257	0.7012	-0	0.048
Mof_H 	H 	0.3042	0.4593	0.296	0.013
Mof_H 	H 	0.9046	0.7344	0.361	0.053
Mof_H 	H 	0.1717	0.1717	0.8238	0.024
Mof_H 	H 	0.6269	0.7862	0.5246	0.029
Mof_H 	H 	0.9955	0.9955	0.1762	0.021
Mof_H 	H 	0.0954	0.2656	0.639	0.051
Mof_H 	H 	0.2988	0.0743	-0	0.059
Mof_H 	H 	0.6269	0.6892	0.5246	0.029
Mof_H 	H 	0.6002	0.5407	0.704	0.016
Mof_H 	H 	0.3972	0.3972	0.8406	-0.002
Mof_H 	H 	0.6958	0.5407	0.704	0.016
Mof_H 	H 	0.2656	0.0954	0.639	0.052
Mof_H 	H 	0.9955	0.8283	0.1762	0.018
Mof_H 	H 	0.8283	0.9955	0.1762	0.018
Mof_H 	H 	0.6028	0.6028	0.1594	0.003
Mof_H 	H 	0.6892	0.6269	0.5246	0.029
Mof_H 	H 	0.3108	0.3731	0.4754	0.029
Mof_H 	H 	0.2378	0.2378	0.1594	0.001
Mof_H 	H 	0.2986	0.8606	0.8408	0.09
Mof_H 	H 	0.8485	0.6892	0.5246	0.031
Mof_H 	H 	0.2656	0.2656	0.639	0.053
Mof_H 	H 	0.2988	0.9257	-0	0.048
Mof_H 	H 	0.2986	0.2986	0.8408	0.087
Mof_H 	H 	0.1515	0.2138	0.4754	0.027
Mof_H 	H 	0.8283	0.8283	0.1762	0.014
Mof_H 	H 	0.0045	0.1717	0.8238	0.02
Mof_H 	H 	0.1394	0.1394	0.1592	0.084
Mof_H 	H 	0.7012	0.9257	-0	0.049
Mof_H 	H 	0.1717	0.0045	0.8238	0.02
Mof_H 	H 	0.2447	0.3042	0.296	0.013
Mof_H 	H 	0.1515	0.3108	0.4754	0.027
Mof_H 	H 	0.6892	0.8485	0.5246	0.031
Mof_H 	H 	0.4593	0.3998	0.296	0.014
Mof_H 	H 	0.0743	0.2988	-0	0.06
Mof_H 	H 	0.3998	0.4593	0.296	0.014
Mof_H 	H 	0.3042	0.2447	0.296	0.013
Mof_H 	H 	0.3972	0.7622	0.8406	-0.001
Mof_H 	H 	0.2138	0.3731	0.4754	0.028
Mof_H 	H 	0.7862	0.6269	0.5246	0.03
Mof_H 	H 	0.8606	0.8606	0.8408	0.092
Mof_H 	H 	0.7553	0.6002	0.704	0.017
Mof_H 	H 	0.3731	0.2138	0.4754	0.028
Mof_H 	H 	0.7622	0.3972	0.8406	-0.001
Mof_H 	H 	0.5407	0.6002	0.704	0.016
Mof_H 	H 	0.9257	0.2988	-0	0.048
Mof_H 	H 	0.7014	0.1394	0.1592	0.087
Mof_H 	H 	0.0954	0.0954	0.639	0.05
Mof_H 	H 	0.6958	0.7553	0.704	0.017
Mof_H 	H 	0.8485	0.7862	0.5246	0.031
Mof_H 	H 	0.1394	0.7014	0.1592	0.087
Mof_H 	H 	0.3998	0.2447	0.296	0.013
Mof_H 	H 	0.0743	0.7012	-0	0.06
Mof_H 	H 	0.7344	0.7344	0.361	0.053
Mof_H 	H 	0.7553	0.6958	0.704	0.017
Mof_H 	H 	0.6028	0.2378	0.1594	0.002
Mof_H 	H 	0.3731	0.3108	0.4754	0.029
Mof_H 	H 	0.9046	0.9046	0.361	0.056
Mof_H 	H 	0.2378	0.6028	0.1594	0.002
Mof_H 	H 	0.5407	0.6958	0.704	0.016
Mof_H 	H 	0.7344	0.9046	0.361	0.054
Mof_H 	H 	0.2138	0.1515	0.4754	0.027
Mof_H 	H 	0.4593	0.3042	0.296	0.014
Mof_H 	H 	0.7014	0.7014	0.1592	0.09
Mof_H 	H 	0.7012	0.0743	-0	0.06
Mof_H 	H 	0.3108	0.1515	0.4754	0.027
Mof_H 	H 	0.6002	0.7553	0.704	0.017
Mof_H 	H 	0.7622	0.7622	0.8406	-0
Mof_H 	H 	0.8606	0.2986	0.8408	0.09
Mof_H 	H 	0.2447	0.3998	0.296	0.013
Mof_H 	H 	0.0045	0.0045	0.8238	0.016
Mof_H 	H 	0.7862	0.8485	0.5246	0.031
Mof_C 	C 	0.06584	0.16995	-0	0.106
Mof_C 	C 	0.16995	0.93416	-0	0.107
Mof_C 	C 	0.3057	0.3952	0.3336	0.008
Mof_C 	C 	0.83005	0.93416	-0	0.108
Mof_C 	C 	0.06584	0.83005	-0	0.109
Mof_C 	C 	0.6553	0.7483	0.5602	-0.031
Mof_C 	C 	0.2855	0.2855	0.90674	-0.141
Mof_C 	C 	0.93416	0.83005	-0	0.108
Mof_C 	C 	0.7879	0.7879	0.325	-0.093
Mof_C 	C 	0.2855	0.80776	0.90674	-0.142
Mof_C 	C 	0.2507	0.2507	0.4986	0.016
Mof_C 	C 	0.74917	0.74917	0.90646	0.151
Mof_C 	C 	0.60866	0.39134	-0	0.394
Mof_C 	C 	0.3952	0.3057	0.3336	0.008
Mof_C 	C 	0.6393	0.7288	0.6664	0.007
Mof_C 	C 	0.1129	0.2121	0.675	-0.092
Mof_C 	C 	0.80776	0.80776	0.90674	-0.143
Mof_C 	C 	0.1917	0.1917	0.6166	0.085
Mof_C 	C 	0.6943	0.7288	0.6664	0.007
Mof_C 	C 	0.93416	0.16995	-0	0.107
Mof_C 	C 	0.19224	0.7145	0.09326	-0.182
Mof_C 	C 	0.7483	0.7845	0.5602	-0.031
Mof_C 	C 	0.2155	0.3085	0.4398	-0.031
Mof_C 	C 	0.3607	0.2712	0.3336	0.008
Mof_C 	C 	0.3447	0.2517	0.4398	-0.031
Mof_C 	C 	0.60866	0.60866	-0	0.395
Mof_C 	C 	0.74713	0.9597	-0	-0.063
Mof_C 	C 	0.39134	0.60866	-0	0.394
Mof_C 	C 	0.85436	0.14564	-0	-0.141
Mof_C 	C 	0.3085	0.2155	0.4398	-0.031
Mof_C 	C 	0.8083	0.8083	0.3834	0.087
Mof_C 	C 	0.0585	0.0585	0.7858	0.046
Mof_C 	C 	0.8871	0.7879	0.325	-0.093
Mof_C 	C 	0.14564	0.85436	-0	-0.141
Mof_C 	C 	0.1557	0.1557	0.7858	0.046
Mof_C 	C 	0.9415	0.9415	0.2142	0.046
Mof_C 	C 	0.20894	0.20894	-0	0.1
Mof_C 	C 	0.39134	0.39134	-0	0.394
Mof_C 	C 	0.6915	0.6553	0.5602	-0.031
Mof_C 	C 	0.2155	0.2517	0.4398	-0.031
Mof_C 	C 	0.6915	0.7845	0.5602	-0.031
Mof_C 	C 	0.67274	0.67274	-0	-0.217
Mof_C 	C 	0.74713	0.0403	-0	-0.111
Mof_C 	C 	0.6393	0.6048	0.6664	0.007
Mof_C 	C 	0.79106	0.20894	-0	0.102
Mof_C 	C 	0.25287	0.0403	-0	-0.115
Mof_C 	C 	0.65563	0.65563	0.09354	0.112
Mof_C 	C 	0.7288	0.6943	0.6664	0.007
Mof_C 	C 	0.7845	0.6915	0.5602	-0.031
Mof_C 	C 	0.2121	0.2121	0.675	-0.091
Mof_C 	C 	0.32726	0.32726	-0	-0.219
Mof_C 	C 	0.2517	0.3447	0.4398	-0.031
Mof_C 	C 	0.25287	0.9597	-0	-0.061
Mof_C 	C 	0.6048	0.6943	0.6664	0.007
Mof_C 	C 	0.3952	0.3607	0.3336	0.008
Mof_C 	C 	0.3447	0.3085	0.4398	-0.031
Mof_C 	C 	0.9415	0.8443	0.2142	0.047
Mof_C 	C 	0.8443	0.9415	0.2142	0.047
Mof_C 	C 	0.79106	0.79106	-0	0.103
Mof_C 	C 	0.65563	0.25083	0.09354	0.111
Mof_C 	C 	0.7483	0.6553	0.5602	-0.031
Mof_C 	C 	0.8443	0.8443	0.2142	0.047
Mof_C 	C 	0.6048	0.6393	0.6664	0.007
Mof_C 	C 	0.0585	0.1557	0.7858	0.046
Mof_C 	C 	0.2517	0.2155	0.4398	-0.031
Mof_C 	C 	0.2712	0.3057	0.3336	0.008
Mof_C 	C 	0.2121	0.1129	0.675	-0.092
Mof_C 	C 	0.7145	0.19224	0.09326	-0.182
Mof_C 	C 	0.83005	0.06584	-0	0.109
Mof_C 	C 	0.19224	0.19224	0.09326	-0.182
Mof_C 	C 	0.7879	0.8871	0.325	-0.093
Mof_C 	C 	0.7845	0.7483	0.5602	-0.031
Mof_C 	C 	0.32726	0.67274	-0	-0.218
Mof_C 	C 	0.1129	0.1129	0.675	-0.093
Mof_C 	C 	0.25083	0.65563	0.09354	0.111
Mof_C 	C 	0.3057	0.2712	0.3336	0.008
Mof_C 	C 	0.1557	0.0585	0.7858	0.046
Mof_C 	C 	0.16995	0.06584	-0	0.106
Mof_C 	C 	0.85436	0.85436	-0	-0.137
Mof_C 	C 	0.8871	0.8871	0.325	-0.092
Mof_C 	C 	0.0403	0.74713	-0	-0.111
Mof_C 	C 	0.0403	0.25287	-0	-0.115
Mof_C 	C 	0.25083	0.25083	0.09354	0.11
Mof_C 	C 	0.3085	0.3447	0.4398	-0.031
Mof_C 	C 	0.80776	0.2855	0.90674	-0.142
Mof_C 	C 	0.20894	0.79106	-0	0.102
Mof_C 	C 	0.6553	0.6915	0.5602	-0.031
Mof_C 	C 	0.34437	0.74917	0.90646	0.151
Mof_C 	C 	0.67274	0.32726	-0	-0.218
Mof_C 	C 	0.7145	0.7145	0.09326	-0.182
Mof_C 	C 	0.7493	0.7493	0.5014	0.016
Mof_C 	C 	0.9597	0.74713	-0	-0.063
Mof_C 	C 	0.74917	0.34437	0.90646	0.151
Mof_C 	C 	0.6943	0.6048	0.6664	0.007
Mof_C 	C 	0.14564	0.14564	-0	-0.146
Mof_C 	C 	0.34437	0.34437	0.90646	0.15
Mof_C 	C 	0.3607	0.3952	0.3336	0.008
Mof_C 	C 	0.9597	0.25287	-0	-0.061
Mof_C 	C 	0.2712	0.3607	0.3336	0.008
Mof_C 	C 	0.7288	0.6393	0.6664	0.007
Mof_N 	N 	0.07979	0.07979	0.84042	-0.196
Mof_N 	N 	0.92021	0.92021	0.15958	-0.201
Mof_N 	N 	-0	0.88045	-0	-0.217
Mof_N 	N 	0.3616	0.3616	0.2768	-0.243
Mof_N 	N 	0.6384	0.6384	0.7232	-0.243
Mof_N 	N 	-0	0.11955	-0	-0.224
Mof_N 	N 	0.11955	0	-0	-0.224
Mof_N 	N 	0.88045	0	-0	-0.217
Mof_O 	O 	0.54028	0.54028	0.08792	-0.479
Mof_O 	O 	0.3718	0.3718	0.08792	-0.48
Mof_O 	O 	0.6282	0.45972	0.91208	-0.445
Mof_O 	O 	0.45972	0.45972	0.91208	-0.445
Mof_O 	O 	0.45972	0.6282	0.91208	-0.445
Mof_O 	O 	0.3718	0.54028	0.08792	-0.479
Mof_O 	O 	0.6282	0.6282	0.91208	-0.445
Mof_O 	O 	0.54028	0.3718	0.08792	-0.479
_end
