data_functionalizedCrystal
_audit_creation_method	'EQeq! by Chris Wilmer'
_symmetry_space_group_name_H-M	'P1'
_symmetry_Int_Tables_number	1
_symmetry_cell_setting	triclinic
loop_
_symmetry_equiv_pos_as_xyz
  x,y,z
_cell_length_a	14.346
_cell_length_b	16.509
_cell_length_c	9.714
_cell_angle_alpha	90
_cell_angle_beta	90
_cell_angle_gamma	90
loop_
_atom_site_label
_atom_site_type_symbol
_atom_site_fract_x
_atom_site_fract_y
_atom_site_fract_z
_atom_site_charge
Mof_O 	O 	0.0967	0.08671	0.3861	-0.507
Mof_C 	C 	0.2191	0.2175	0.3787	-0.046
Mof_H 	H 	0.1984	0.1965	0.2954	0.056
Mof_H 	H 	0.0547	0.1099	0.112	0.97
Mof_C 	C 	0.0815	0.0418	0.0784	0.282
Mof_H 	H 	0.1376	0.0154	0.1114	-0.239
Mof_H 	H 	0.0821	0.0972	0.1114	-1.031
Mof_O 	O 	0.5967	0.58671	0.3861	-0.46
Mof_C 	C 	0.7191	0.7175	0.3787	-0.017
Mof_H 	H 	0.6984	0.6965	0.2954	0.062
Mof_H 	H 	0.5547	0.6099	0.112	0.09
Mof_C 	C 	0.5815	0.5418	0.0784	-0.004
Mof_H 	H 	0.6376	0.5154	0.1114	0.026
Mof_H 	H 	0.5821	0.5972	0.1114	-0.049
Mof_O 	O 	0.9033	0.91329	0.3861	-0.371
Mof_C 	C 	0.7809	0.7825	0.3787	0.019
Mof_H 	H 	0.8016	0.8035	0.2954	0.039
Mof_H 	H 	0.9453	0.8901	0.112	-2.031
Mof_C 	C 	0.9185	0.9582	0.0784	-0.59
Mof_H 	H 	0.8624	0.9846	0.1114	0.25
Mof_H 	H 	0.9179	0.9028	0.1114	2.249
Mof_O 	O 	0.4033	0.41329	0.3861	-0.479
Mof_C 	C 	0.2809	0.2825	0.3787	-0.006
Mof_H 	H 	0.3016	0.3035	0.2954	0.033
Mof_H 	H 	0.4453	0.3901	0.112	-0.039
Mof_C 	C 	0.4185	0.4582	0.0784	-0.04
Mof_H 	H 	0.3624	0.4846	0.1114	0.013
Mof_H 	H 	0.4179	0.4028	0.1114	0.076
Mof_O 	O 	0.9033	0.08671	0.6139	-0.377
Mof_C 	C 	0.7809	0.2175	0.6213	0.015
Mof_H 	H 	0.8016	0.1965	0.7046	0.041
Mof_H 	H 	0.9453	0.1099	0.888	-2.175
Mof_C 	C 	0.9185	0.0418	0.9216	-0.547
Mof_H 	H 	0.8624	0.0154	0.8886	-0.076
Mof_H 	H 	0.9179	0.0972	0.8886	2.385
Mof_O 	O 	0.4033	0.58671	0.6139	-0.479
Mof_C 	C 	0.2809	0.7175	0.6213	-0.007
Mof_H 	H 	0.3016	0.6965	0.7046	0.034
Mof_H 	H 	0.4453	0.6099	0.888	-0.038
Mof_C 	C 	0.4185	0.5418	0.9216	-0.041
Mof_H 	H 	0.3624	0.5154	0.8886	0.015
Mof_H 	H 	0.4179	0.5972	0.8886	0.076
Mof_O 	O 	0.0967	0.91329	0.6139	-0.497
Mof_C 	C 	0.2191	0.7825	0.6213	-0.043
Mof_H 	H 	0.1984	0.8035	0.7046	0.053
Mof_H 	H 	0.0547	0.8901	0.888	1.183
Mof_C 	C 	0.0815	0.9582	0.9216	0.202
Mof_H 	H 	0.1376	0.9846	0.8886	0.233
Mof_H 	H 	0.0821	0.9028	0.8886	-1.224
Mof_O 	O 	0.5967	0.41329	0.6139	-0.46
Mof_C 	C 	0.7191	0.2825	0.6213	-0.016
Mof_H 	H 	0.6984	0.3035	0.7046	0.061
Mof_H 	H 	0.5547	0.3901	0.888	0.089
Mof_C 	C 	0.5815	0.4582	0.9216	-0.002
Mof_H 	H 	0.6376	0.4846	0.8886	0.024
Mof_H 	H 	0.5821	0.4028	0.8886	-0.048
Mof_O 	O 	0.9033	0.91329	0.6139	-0.371
Mof_C 	C 	0.7809	0.7825	0.6213	0.019
Mof_H 	H 	0.8016	0.8035	0.7046	0.039
Mof_H 	H 	0.9453	0.8901	0.888	-2.031
Mof_C 	C 	0.9185	0.9582	0.9216	-0.59
Mof_H 	H 	0.8624	0.9846	0.8886	0.25
Mof_H 	H 	0.9179	0.9028	0.8886	2.249
Mof_O 	O 	0.4033	0.41329	0.6139	-0.479
Mof_C 	C 	0.2809	0.2825	0.6213	-0.006
Mof_H 	H 	0.3016	0.3035	0.7046	0.033
Mof_H 	H 	0.4453	0.3901	0.888	-0.039
Mof_C 	C 	0.4185	0.4582	0.9216	-0.04
Mof_H 	H 	0.3624	0.4846	0.8886	0.013
Mof_H 	H 	0.4179	0.4028	0.8886	0.076
Mof_O 	O 	0.0967	0.08671	0.6139	-0.508
Mof_C 	C 	0.2191	0.2175	0.6213	-0.047
Mof_H 	H 	0.1984	0.1965	0.7046	0.055
Mof_H 	H 	0.0547	0.1099	0.888	0.969
Mof_C 	C 	0.0815	0.0418	0.9216	0.282
Mof_H 	H 	0.1376	0.0154	0.8886	-0.239
Mof_H 	H 	0.0821	0.0972	0.8886	-1.031
Mof_O 	O 	0.5967	0.58671	0.6139	-0.46
Mof_C 	C 	0.7191	0.7175	0.6213	-0.017
Mof_H 	H 	0.6984	0.6965	0.7046	0.062
Mof_H 	H 	0.5547	0.6099	0.888	0.09
Mof_C 	C 	0.5815	0.5418	0.9216	-0.004
Mof_H 	H 	0.6376	0.5154	0.8886	0.026
Mof_H 	H 	0.5821	0.5972	0.8886	-0.049
Mof_O 	O 	0.0967	0.91329	0.3861	-0.497
Mof_C 	C 	0.2191	0.7825	0.3787	-0.043
Mof_H 	H 	0.1984	0.8035	0.2954	0.053
Mof_H 	H 	0.0547	0.8901	0.112	1.183
Mof_C 	C 	0.0815	0.9582	0.0784	0.202
Mof_H 	H 	0.1376	0.9846	0.1114	0.233
Mof_H 	H 	0.0821	0.9028	0.1114	-1.224
Mof_O 	O 	0.5967	0.41329	0.3861	-0.46
Mof_C 	C 	0.7191	0.2825	0.3787	-0.016
Mof_H 	H 	0.6984	0.3035	0.2954	0.061
Mof_H 	H 	0.5547	0.3901	0.112	0.089
Mof_C 	C 	0.5815	0.4582	0.0784	-0.002
Mof_H 	H 	0.6376	0.4846	0.1114	0.024
Mof_H 	H 	0.5821	0.4028	0.1114	-0.048
Mof_O 	O 	0.9033	0.08671	0.3861	-0.377
Mof_C 	C 	0.7809	0.2175	0.3787	0.015
Mof_H 	H 	0.8016	0.1965	0.2954	0.041
Mof_H 	H 	0.9453	0.1099	0.112	-2.175
Mof_C 	C 	0.9185	0.0418	0.0784	-0.547
Mof_H 	H 	0.8624	0.0154	0.1114	-0.076
Mof_H 	H 	0.9179	0.0972	0.1114	2.385
Mof_O 	O 	0.4033	0.58671	0.3861	-0.479
Mof_C 	C 	0.2809	0.7175	0.3787	-0.007
Mof_H 	H 	0.3016	0.6965	0.2954	0.034
Mof_H 	H 	0.4453	0.6099	0.112	-0.038
Mof_C 	C 	0.4185	0.5418	0.0784	-0.041
Mof_H 	H 	0.3624	0.5154	0.1114	0.015
Mof_H 	H 	0.4179	0.5972	0.1114	0.076
Mof_Zn	Zn	8.82615e-34	0	0.34765	1.12
Mof_N 	N 	-1.03186e-33	-6.85774e-34	0.1338	-0.325
Mof_Zn	Zn	0.5	0.5	0.34765	1.216
Mof_N 	N 	0.5	0.5	0.1338	-0.194
Mof_Zn	Zn	1.65619e-33	0	0.65235	1.12
Mof_N 	N 	-3.28708e-33	0	0.8662	-0.325
Mof_Zn	Zn	0.5	0.5	0.65235	1.216
Mof_N 	N 	0.5	0.5	0.8662	-0.194
Mof_C 	C 	0.123	0.113	0.5	0.371
Mof_C 	C 	0.1882	0.1839	0.5	-0.085
Mof_C 	C 	0.623	0.613	0.5	0.402
Mof_C 	C 	0.6882	0.6839	0.5	-0.063
Mof_C 	C 	0.877	0.887	0.5	0.401
Mof_C 	C 	0.8118	0.8161	0.5	-0.076
Mof_C 	C 	0.377	0.387	0.5	0.399
Mof_C 	C 	0.3118	0.3161	0.5	-0.11
Mof_C 	C 	0.877	0.113	0.5	0.398
Mof_C 	C 	0.8118	0.1839	0.5	-0.075
Mof_C 	C 	0.377	0.613	0.5	0.399
Mof_C 	C 	0.3118	0.6839	0.5	-0.108
Mof_C 	C 	0.123	0.887	0.5	0.373
Mof_C 	C 	0.1882	0.8161	0.5	-0.085
Mof_C 	C 	0.623	0.387	0.5	0.402
Mof_C 	C 	0.6882	0.3161	0.5	-0.065
Mof_C 	C 	2.00565e-34	0.0814	0.079	0.221
Mof_C 	C 	0.5	0.5814	0.079	-0.03
Mof_C 	C 	-2.54253e-33	0.9186	0.079	0.149
Mof_C 	C 	0.5	0.4186	0.079	-0.031
Mof_C 	C 	-3.14795e-33	0.0814	0.921	0.221
Mof_C 	C 	0.5	0.5814	0.921	-0.03
Mof_C 	C 	-1.41203e-32	0.9186	0.921	0.149
Mof_C 	C 	0.5	0.4186	0.921	-0.031
_end
