data_functionalizedCrystal
_audit_creation_method	'EQeq! by Chris Wilmer'
_symmetry_space_group_name_H-M	'P1'
_symmetry_Int_Tables_number	1
_symmetry_cell_setting	triclinic
loop_
_symmetry_equiv_pos_as_xyz
  x,y,z
_cell_length_a	9.469
_cell_length_b	9.469
_cell_length_c	22.233
_cell_angle_alpha	90
_cell_angle_beta	90
_cell_angle_gamma	120
loop_
_atom_site_label
_atom_site_type_symbol
_atom_site_fract_x
_atom_site_fract_y
_atom_site_fract_z
_atom_site_charge
Mof_C 	C 	0.896	0.858	0.1251	0.001
Mof_C 	C 	0.895	0.858	0.0626	-0.023
Mof_C 	C 	0.111	0.141	0.127	-0.009
Mof_C 	C 	0.026	0.889	0.0646	0.225
Mof_C 	C 	0.142	0.038	0.1251	0.084
Mof_C 	C 	0.142	0.037	0.0626	0.065
Mof_C 	C 	0.859	0.97	0.127	-0.013
Mof_C 	C 	0.111	0.137	0.0646	0
Mof_C 	C 	0.962	0.104	0.1251	-0.15
Mof_C 	C 	0.963	0.105	0.0626	-0.179
Mof_C 	C 	0.03	0.889	0.127	0.206
Mof_C 	C 	0.863	0.974	0.0646	-0.005
Mof_C 	C 	0.104	0.142	0.6251	-0.048
Mof_C 	C 	0.105	0.142	0.5626	-0.074
Mof_C 	C 	0.889	0.859	0.627	0.125
Mof_C 	C 	0.974	0.111	0.5646	-0.086
Mof_C 	C 	0.858	0.962	0.6251	-0.108
Mof_C 	C 	0.858	0.963	0.5626	-0.144
Mof_C 	C 	0.141	0.03	0.627	0.13
Mof_C 	C 	0.889	0.863	0.5646	0.143
Mof_C 	C 	0.038	0.896	0.6251	0.112
Mof_C 	C 	0.037	0.895	0.5626	0.087
Mof_C 	C 	0.97	0.111	0.627	-0.095
Mof_C 	C 	0.137	0.026	0.5646	0.153
Mof_C 	C 	0.858	0.896	0.8749	0
Mof_C 	C 	0.858	0.895	0.9374	-0.024
Mof_C 	C 	0.141	0.111	0.873	-0.01
Mof_C 	C 	0.889	0.026	0.9354	0.224
Mof_C 	C 	0.038	0.142	0.8749	0.083
Mof_C 	C 	0.037	0.142	0.9374	0.064
Mof_C 	C 	0.97	0.859	0.873	-0.014
Mof_C 	C 	0.137	0.111	0.9354	-0.001
Mof_C 	C 	0.104	0.962	0.8749	-0.15
Mof_C 	C 	0.105	0.963	0.9374	-0.179
Mof_C 	C 	0.889	0.03	0.873	0.206
Mof_C 	C 	0.974	0.863	0.9354	-0.005
Mof_C 	C 	0.142	0.104	0.3749	-0.048
Mof_C 	C 	0.142	0.105	0.4374	-0.074
Mof_C 	C 	0.859	0.889	0.373	0.125
Mof_C 	C 	0.111	0.974	0.4354	-0.086
Mof_C 	C 	0.962	0.858	0.3749	-0.108
Mof_C 	C 	0.963	0.858	0.4374	-0.144
Mof_C 	C 	0.03	0.141	0.373	0.13
Mof_C 	C 	0.863	0.889	0.4354	0.143
Mof_C 	C 	0.896	0.038	0.3749	0.112
Mof_C 	C 	0.895	0.037	0.4374	0.087
Mof_C 	C 	0.111	0.97	0.373	-0.095
Mof_C 	C 	0.026	0.137	0.4354	0.153
Mof_C 	C 	0.104	0.142	0.8749	-0.057
Mof_C 	C 	0.105	0.142	0.9374	-0.078
Mof_C 	C 	0.889	0.859	0.873	0.134
Mof_C 	C 	0.974	0.111	0.9354	-0.081
Mof_C 	C 	0.858	0.962	0.8749	-0.116
Mof_C 	C 	0.858	0.963	0.9374	-0.146
Mof_C 	C 	0.141	0.03	0.873	0.138
Mof_C 	C 	0.889	0.863	0.9354	0.147
Mof_C 	C 	0.038	0.896	0.8749	0.103
Mof_C 	C 	0.037	0.895	0.9374	0.083
Mof_C 	C 	0.97	0.111	0.873	-0.087
Mof_C 	C 	0.137	0.026	0.9354	0.155
Mof_C 	C 	0.896	0.858	0.3749	0.009
Mof_C 	C 	0.895	0.858	0.4374	-0.02
Mof_C 	C 	0.111	0.141	0.373	-0.019
Mof_C 	C 	0.026	0.889	0.4354	0.221
Mof_C 	C 	0.142	0.038	0.3749	0.092
Mof_C 	C 	0.142	0.037	0.4374	0.067
Mof_C 	C 	0.859	0.97	0.373	-0.022
Mof_C 	C 	0.111	0.137	0.4354	-0.006
Mof_C 	C 	0.962	0.104	0.3749	-0.143
Mof_C 	C 	0.963	0.105	0.4374	-0.176
Mof_C 	C 	0.03	0.889	0.373	0.198
Mof_C 	C 	0.863	0.974	0.4354	-0.008
Mof_C 	C 	0.142	0.104	0.1251	-0.057
Mof_C 	C 	0.142	0.105	0.0626	-0.078
Mof_C 	C 	0.859	0.889	0.127	0.134
Mof_C 	C 	0.111	0.974	0.0646	-0.081
Mof_C 	C 	0.962	0.858	0.1251	-0.116
Mof_C 	C 	0.963	0.858	0.0626	-0.146
Mof_C 	C 	0.03	0.141	0.127	0.138
Mof_C 	C 	0.863	0.889	0.0646	0.147
Mof_C 	C 	0.896	0.038	0.1251	0.103
Mof_C 	C 	0.895	0.037	0.0626	0.083
Mof_C 	C 	0.111	0.97	0.127	-0.087
Mof_C 	C 	0.026	0.137	0.0646	0.155
Mof_C 	C 	0.858	0.896	0.6251	0.009
Mof_C 	C 	0.858	0.895	0.5626	-0.02
Mof_C 	C 	0.141	0.111	0.627	-0.019
Mof_C 	C 	0.889	0.026	0.5646	0.221
Mof_C 	C 	0.038	0.142	0.6251	0.092
Mof_C 	C 	0.037	0.142	0.5626	0.067
Mof_C 	C 	0.97	0.859	0.627	-0.022
Mof_C 	C 	0.137	0.111	0.5646	-0.006
Mof_C 	C 	0.104	0.962	0.6251	-0.143
Mof_C 	C 	0.105	0.963	0.5626	-0.176
Mof_C 	C 	0.889	0.03	0.627	0.198
Mof_C 	C 	0.974	0.863	0.5646	-0.008
Mof_Ni	Ni	-0	-1.46222e-32	0.25	1.124
Mof_Ni	Ni	1.46222e-32	0	0.75	1.124
Mof_O 	O 	0.221	0.222	0.25	-0.341
Mof_O 	O 	0.319	0.403	0.25	-0.195
Mof_C 	C 	0.351	0.29	0.25	0.531
Mof_C 	C 	0.5225	0.3349	0.25	0.046
Mof_O 	O 	0.778	0.999	0.25	-0.169
Mof_O 	O 	0.597	0.916	0.25	-0.108
Mof_C 	C 	0.71	0.061	0.25	0.277
Mof_C 	C 	0.6651	0.1876	0.25	-0.063
Mof_O 	O 	0.001	0.779	0.25	-0.36
Mof_O 	O 	0.084	0.681	0.25	-0.218
Mof_C 	C 	0.939	0.649	0.25	0.491
Mof_C 	C 	0.8124	0.4775	0.25	-0.048
Mof_O 	O 	0.779	0.778	0.75	-0.246
Mof_O 	O 	0.681	0.597	0.75	-0.157
Mof_C 	C 	0.649	0.71	0.75	0.345
Mof_C 	C 	0.4775	0.6651	0.75	-0.088
Mof_O 	O 	0.222	0.001	0.75	-0.411
Mof_O 	O 	0.403	0.084	0.75	-0.239
Mof_C 	C 	0.29	0.939	0.75	0.589
Mof_C 	C 	0.3349	0.8124	0.75	0.022
Mof_O 	O 	0.999	0.221	0.75	-0.211
Mof_O 	O 	0.916	0.319	0.75	-0.125
Mof_C 	C 	0.061	0.351	0.75	0.364
Mof_C 	C 	0.1876	0.5225	0.75	0.002
Mof_O 	O 	0.222	0.221	0.75	-0.341
Mof_O 	O 	0.403	0.319	0.75	-0.195
Mof_C 	C 	0.29	0.351	0.75	0.531
Mof_C 	C 	0.3349	0.5225	0.75	0.046
Mof_O 	O 	0.999	0.778	0.75	-0.169
Mof_O 	O 	0.916	0.597	0.75	-0.108
Mof_C 	C 	0.061	0.71	0.75	0.277
Mof_C 	C 	0.1876	0.6651	0.75	-0.063
Mof_O 	O 	0.779	0.001	0.75	-0.36
Mof_O 	O 	0.681	0.084	0.75	-0.218
Mof_C 	C 	0.649	0.939	0.75	0.491
Mof_C 	C 	0.4775	0.8124	0.75	-0.048
Mof_O 	O 	0.778	0.779	0.25	-0.246
Mof_O 	O 	0.597	0.681	0.25	-0.157
Mof_C 	C 	0.71	0.649	0.25	0.345
Mof_C 	C 	0.6651	0.4775	0.25	-0.088
Mof_O 	O 	0.001	0.222	0.25	-0.411
Mof_O 	O 	0.084	0.403	0.25	-0.239
Mof_C 	C 	0.939	0.29	0.25	0.589
Mof_C 	C 	0.8124	0.3349	0.25	0.022
Mof_O 	O 	0.221	0.999	0.25	-0.211
Mof_O 	O 	0.319	0.916	0.25	-0.125
Mof_C 	C 	0.351	0.061	0.25	0.364
Mof_C 	C 	0.5225	0.1876	0.25	0.002
Mof_C 	C 	0.317	0.1585	0.25	-0.293
Mof_C 	C 	0.492	0.246	0.25	-0.193
Mof_O 	O 	0.245	0.1225	0.25	0.019
Mof_C 	C 	0.8415	0.1585	0.25	-0.136
Mof_C 	C 	0.754	0.246	0.25	-0.125
Mof_O 	O 	0.8775	0.1225	0.25	-0.066
Mof_C 	C 	0.8415	0.683	0.25	0.028
Mof_C 	C 	0.754	0.508	0.25	-0.05
Mof_O 	O 	0.8775	0.755	0.25	-0.157
Mof_C 	C 	0.683	0.8415	0.75	0.028
Mof_C 	C 	0.508	0.754	0.75	-0.05
Mof_O 	O 	0.755	0.8775	0.75	-0.157
Mof_C 	C 	0.1585	0.8415	0.75	-0.136
Mof_C 	C 	0.246	0.754	0.75	-0.125
Mof_O 	O 	0.1225	0.8775	0.75	-0.066
Mof_C 	C 	0.1585	0.317	0.75	-0.293
Mof_C 	C 	0.246	0.492	0.75	-0.193
Mof_O 	O 	0.1225	0.245	0.75	0.019
Mof_C 	C 	0.583	0.417	0.25	0.027
Mof_H 	H 	0.5251	0.4749	0.25	0.037
Mof_C 	C 	0.583	0.166	0.25	0.106
Mof_H 	H 	0.5251	0.0502	0.25	-0.005
Mof_C 	C 	0.834	0.417	0.25	-0.043
Mof_H 	H 	0.9498	0.4749	0.25	0.074
Mof_C 	C 	0.417	0.583	0.75	0.027
Mof_H 	H 	0.4749	0.5251	0.75	0.037
Mof_C 	C 	0.417	0.834	0.75	-0.043
Mof_H 	H 	0.4749	0.9498	0.75	0.074
Mof_C 	C 	0.166	0.583	0.75	0.106
Mof_H 	H 	0.0502	0.5251	0.75	-0.005
Mof_N 	N 	-0	0	0.1565	-0.279
Mof_C 	C 	-0	-1.82778e-33	0.0323	-0.129
Mof_N 	N 	-0	0	0.6565	-0.279
Mof_C 	C 	-0	0	0.5323	-0.129
Mof_N 	N 	-1.46222e-32	0	0.8435	-0.279
Mof_C 	C 	-0	0	0.9677	-0.129
Mof_N 	N 	-7.31111e-33	-1.46222e-32	0.3435	-0.279
Mof_C 	C 	-0	0	0.4677	-0.129
_end
