data_functionalizedCrystal
_audit_creation_method	'EQeq! by Chris Wilmer'
_symmetry_space_group_name_H-M	'P1'
_symmetry_Int_Tables_number	1
_symmetry_cell_setting	triclinic
loop_
_symmetry_equiv_pos_as_xyz
  x,y,z
_cell_length_a	14.1237
_cell_length_b	14.1237
_cell_length_c	19.8572
_cell_angle_alpha	90
_cell_angle_beta	90
_cell_angle_gamma	90
loop_
_atom_site_label
_atom_site_type_symbol
_atom_site_fract_x
_atom_site_fract_y
_atom_site_fract_z
_atom_site_charge
Mof_N 	N 	0.3958	0.6701	0.5681	-0.154
Mof_C 	C 	0.383	0.7272	0.6224	-0.141
Mof_H 	H 	0.4212	0.7784	0.6338	0.135
Mof_O 	O 	0.4091	0.7001	0.5728	-0.32
Mof_C 	C 	0.3416	0.7769	0.6903	0.405
Mof_H 	H 	0.3912	0.8091	0.6697	-0.157
Mof_N 	N 	0.8958	0.1701	0.0681	-0.149
Mof_C 	C 	0.883	0.2272	0.1224	-0.151
Mof_H 	H 	0.9212	0.2784	0.1338	0.142
Mof_O 	O 	0.9091	0.2001	0.0728	-0.334
Mof_C 	C 	0.8416	0.2769	0.1903	0.422
Mof_H 	H 	0.8912	0.3091	0.1697	-0.169
Mof_N 	N 	0.6042	0.3299	0.5681	-0.163
Mof_C 	C 	0.617	0.2728	0.6224	-0.146
Mof_H 	H 	0.5788	0.2216	0.6338	0.132
Mof_O 	O 	0.5909	0.2999	0.5728	-0.314
Mof_C 	C 	0.6584	0.2231	0.6903	0.405
Mof_H 	H 	0.6088	0.1909	0.6697	-0.164
Mof_N 	N 	0.1042	0.8299	0.0681	-0.191
Mof_C 	C 	0.117	0.7728	0.1224	-0.168
Mof_H 	H 	0.0788	0.7216	0.1338	0.127
Mof_O 	O 	0.0909	0.7999	0.0728	-0.304
Mof_C 	C 	0.1584	0.7231	0.1903	0.423
Mof_H 	H 	0.1088	0.6909	0.1697	-0.178
Mof_N 	N 	0.3299	0.3958	0.5681	-0.162
Mof_C 	C 	0.2728	0.383	0.6224	-0.149
Mof_H 	H 	0.2216	0.4212	0.6338	0.133
Mof_O 	O 	0.2999	0.4091	0.5728	-0.317
Mof_C 	C 	0.2231	0.3416	0.6903	0.405
Mof_H 	H 	0.1909	0.3912	0.6697	-0.165
Mof_N 	N 	0.8299	0.8958	0.0681	-0.161
Mof_C 	C 	0.7728	0.883	0.1224	-0.149
Mof_H 	H 	0.7216	0.9212	0.1338	0.141
Mof_O 	O 	0.7999	0.9091	0.0728	-0.31
Mof_C 	C 	0.7231	0.8416	0.1903	0.422
Mof_H 	H 	0.6909	0.8912	0.1697	-0.167
Mof_N 	N 	0.6701	0.6042	0.5681	-0.156
Mof_C 	C 	0.7272	0.617	0.6224	-0.138
Mof_H 	H 	0.7784	0.5788	0.6338	0.134
Mof_O 	O 	0.7001	0.5909	0.5728	-0.317
Mof_C 	C 	0.7769	0.6584	0.6903	0.406
Mof_H 	H 	0.8091	0.6088	0.6697	-0.156
Mof_N 	N 	0.1701	0.1042	0.0681	-0.179
Mof_C 	C 	0.2272	0.117	0.1224	-0.169
Mof_H 	H 	0.2784	0.0788	0.1338	0.128
Mof_O 	O 	0.2001	0.0909	0.0728	-0.327
Mof_C 	C 	0.2769	0.1584	0.1903	0.423
Mof_H 	H 	0.3091	0.1088	0.1697	-0.179
Mof_N 	N 	0.6042	0.6701	0.4319	-0.156
Mof_C 	C 	0.617	0.7272	0.3776	-0.136
Mof_H 	H 	0.5788	0.7784	0.3662	0.133
Mof_O 	O 	0.5909	0.7001	0.4272	-0.32
Mof_C 	C 	0.6584	0.7769	0.3097	0.415
Mof_H 	H 	0.6088	0.8091	0.3303	-0.161
Mof_N 	N 	0.1042	0.1701	0.9319	-0.139
Mof_C 	C 	0.117	0.2272	0.8776	-0.141
Mof_H 	H 	0.0788	0.2784	0.8662	0.13
Mof_O 	O 	0.0909	0.2001	0.9272	-0.296
Mof_C 	C 	0.1584	0.2769	0.8097	0.396
Mof_H 	H 	0.1088	0.3091	0.8303	-0.158
Mof_N 	N 	0.3958	0.3299	0.4319	-0.162
Mof_C 	C 	0.383	0.2728	0.3776	-0.147
Mof_H 	H 	0.4212	0.2216	0.3662	0.132
Mof_O 	O 	0.4091	0.2999	0.4272	-0.319
Mof_C 	C 	0.3416	0.2231	0.3097	0.415
Mof_H 	H 	0.3912	0.1909	0.3303	-0.171
Mof_N 	N 	0.8958	0.8299	0.9319	-0.123
Mof_C 	C 	0.883	0.7728	0.8776	-0.123
Mof_H 	H 	0.9212	0.7216	0.8662	0.142
Mof_O 	O 	0.9091	0.7999	0.9272	-0.281
Mof_C 	C 	0.8416	0.7231	0.8097	0.397
Mof_H 	H 	0.8912	0.6909	0.8303	-0.147
Mof_N 	N 	0.6701	0.3958	0.4319	-0.155
Mof_C 	C 	0.7272	0.383	0.3776	-0.14
Mof_H 	H 	0.7784	0.4212	0.3662	0.134
Mof_O 	O 	0.7001	0.4091	0.4272	-0.323
Mof_C 	C 	0.7769	0.3416	0.3097	0.415
Mof_H 	H 	0.8091	0.3912	0.3303	-0.163
Mof_N 	N 	0.1701	0.8958	0.9319	-0.111
Mof_C 	C 	0.2272	0.883	0.8776	-0.124
Mof_H 	H 	0.2784	0.9212	0.8662	0.143
Mof_O 	O 	0.2001	0.9091	0.9272	-0.303
Mof_C 	C 	0.2769	0.8416	0.8097	0.396
Mof_H 	H 	0.3091	0.8912	0.8303	-0.148
Mof_N 	N 	0.3299	0.6042	0.4319	-0.163
Mof_C 	C 	0.2728	0.617	0.3776	-0.144
Mof_H 	H 	0.2216	0.5788	0.3662	0.131
Mof_O 	O 	0.2999	0.5909	0.4272	-0.316
Mof_C 	C 	0.2231	0.6584	0.3097	0.415
Mof_H 	H 	0.1909	0.6088	0.3303	-0.169
Mof_N 	N 	0.8299	0.1042	0.9319	-0.151
Mof_C 	C 	0.7728	0.117	0.8776	-0.14
Mof_H 	H 	0.7216	0.0788	0.8662	0.129
Mof_O 	O 	0.7999	0.0909	0.9272	-0.275
Mof_C 	C 	0.7231	0.1584	0.8097	0.397
Mof_H 	H 	0.6909	0.1088	0.8303	-0.157
Mof_N 	N 	0.6042	0.3299	0.4319	-0.163
Mof_C 	C 	0.617	0.2728	0.3776	-0.144
Mof_H 	H 	0.5788	0.2216	0.3662	0.131
Mof_O 	O 	0.5909	0.2999	0.4272	-0.316
Mof_C 	C 	0.6584	0.2231	0.3097	0.415
Mof_H 	H 	0.6088	0.1909	0.3303	-0.169
Mof_N 	N 	0.1042	0.8299	0.9319	-0.151
Mof_C 	C 	0.117	0.7728	0.8776	-0.14
Mof_H 	H 	0.0788	0.7216	0.8662	0.129
Mof_O 	O 	0.0909	0.7999	0.9272	-0.275
Mof_C 	C 	0.1584	0.7231	0.8097	0.397
Mof_H 	H 	0.1088	0.6909	0.8303	-0.157
Mof_N 	N 	0.3958	0.6701	0.4319	-0.155
Mof_C 	C 	0.383	0.7272	0.3776	-0.14
Mof_H 	H 	0.4212	0.7784	0.3662	0.134
Mof_O 	O 	0.4091	0.7001	0.4272	-0.323
Mof_C 	C 	0.3416	0.7769	0.3097	0.415
Mof_H 	H 	0.3912	0.8091	0.3303	-0.163
Mof_N 	N 	0.8958	0.1701	0.9319	-0.111
Mof_C 	C 	0.883	0.2272	0.8776	-0.124
Mof_H 	H 	0.9212	0.2784	0.8662	0.143
Mof_O 	O 	0.9091	0.2001	0.9272	-0.303
Mof_C 	C 	0.8416	0.2769	0.8097	0.396
Mof_H 	H 	0.8912	0.3091	0.8303	-0.148
Mof_N 	N 	0.6701	0.6042	0.4319	-0.156
Mof_C 	C 	0.7272	0.617	0.3776	-0.136
Mof_H 	H 	0.7784	0.5788	0.3662	0.133
Mof_O 	O 	0.7001	0.5909	0.4272	-0.32
Mof_C 	C 	0.7769	0.6584	0.3097	0.415
Mof_H 	H 	0.8091	0.6088	0.3303	-0.161
Mof_N 	N 	0.1701	0.1042	0.9319	-0.139
Mof_C 	C 	0.2272	0.117	0.8776	-0.141
Mof_H 	H 	0.2784	0.0788	0.8662	0.13
Mof_O 	O 	0.2001	0.0909	0.9272	-0.296
Mof_C 	C 	0.2769	0.1584	0.8097	0.396
Mof_H 	H 	0.3091	0.1088	0.8303	-0.158
Mof_N 	N 	0.3299	0.3958	0.4319	-0.162
Mof_C 	C 	0.2728	0.383	0.3776	-0.147
Mof_H 	H 	0.2216	0.4212	0.3662	0.132
Mof_O 	O 	0.2999	0.4091	0.4272	-0.319
Mof_C 	C 	0.2231	0.3416	0.3097	0.415
Mof_H 	H 	0.1909	0.3912	0.3303	-0.171
Mof_N 	N 	0.8299	0.8958	0.9319	-0.123
Mof_C 	C 	0.7728	0.883	0.8776	-0.123
Mof_H 	H 	0.7216	0.9212	0.8662	0.142
Mof_O 	O 	0.7999	0.9091	0.9272	-0.281
Mof_C 	C 	0.7231	0.8416	0.8097	0.397
Mof_H 	H 	0.6909	0.8912	0.8303	-0.147
Mof_N 	N 	0.3958	0.3299	0.5681	-0.162
Mof_C 	C 	0.383	0.2728	0.6224	-0.149
Mof_H 	H 	0.4212	0.2216	0.6338	0.133
Mof_O 	O 	0.4091	0.2999	0.5728	-0.317
Mof_C 	C 	0.3416	0.2231	0.6903	0.405
Mof_H 	H 	0.3912	0.1909	0.6697	-0.165
Mof_N 	N 	0.8958	0.8299	0.0681	-0.161
Mof_C 	C 	0.883	0.7728	0.1224	-0.149
Mof_H 	H 	0.9212	0.7216	0.1338	0.141
Mof_O 	O 	0.9091	0.7999	0.0728	-0.31
Mof_C 	C 	0.8416	0.7231	0.1903	0.422
Mof_H 	H 	0.8912	0.6909	0.1697	-0.167
Mof_N 	N 	0.6042	0.6701	0.5681	-0.156
Mof_C 	C 	0.617	0.7272	0.6224	-0.138
Mof_H 	H 	0.5788	0.7784	0.6338	0.134
Mof_O 	O 	0.5909	0.7001	0.5728	-0.317
Mof_C 	C 	0.6584	0.7769	0.6903	0.406
Mof_H 	H 	0.6088	0.8091	0.6697	-0.156
Mof_N 	N 	0.1042	0.1701	0.0681	-0.179
Mof_C 	C 	0.117	0.2272	0.1224	-0.169
Mof_H 	H 	0.0788	0.2784	0.1338	0.128
Mof_O 	O 	0.0909	0.2001	0.0728	-0.327
Mof_C 	C 	0.1584	0.2769	0.1903	0.423
Mof_H 	H 	0.1088	0.3091	0.1697	-0.179
Mof_N 	N 	0.3299	0.6042	0.5681	-0.163
Mof_C 	C 	0.2728	0.617	0.6224	-0.146
Mof_H 	H 	0.2216	0.5788	0.6338	0.132
Mof_O 	O 	0.2999	0.5909	0.5728	-0.314
Mof_C 	C 	0.2231	0.6584	0.6903	0.405
Mof_H 	H 	0.1909	0.6088	0.6697	-0.164
Mof_N 	N 	0.8299	0.1042	0.0681	-0.191
Mof_C 	C 	0.7728	0.117	0.1224	-0.168
Mof_H 	H 	0.7216	0.0788	0.1338	0.127
Mof_O 	O 	0.7999	0.0909	0.0728	-0.304
Mof_C 	C 	0.7231	0.1584	0.1903	0.423
Mof_H 	H 	0.6909	0.1088	0.1697	-0.178
Mof_N 	N 	0.6701	0.3958	0.5681	-0.155
Mof_C 	C 	0.7272	0.383	0.6224	-0.142
Mof_H 	H 	0.7784	0.4212	0.6338	0.135
Mof_O 	O 	0.7001	0.4091	0.5728	-0.32
Mof_C 	C 	0.7769	0.3416	0.6903	0.405
Mof_H 	H 	0.8091	0.3912	0.6697	-0.157
Mof_N 	N 	0.1701	0.8958	0.0681	-0.149
Mof_C 	C 	0.2272	0.883	0.1224	-0.151
Mof_H 	H 	0.2784	0.9212	0.1338	0.142
Mof_O 	O 	0.2001	0.9091	0.0728	-0.334
Mof_C 	C 	0.2769	0.8416	0.1903	0.422
Mof_H 	H 	0.3091	0.8912	0.1697	-0.169
Mof_Cu	Cu	0.5	0.67915	0.5	0.953
Mof_Cu	Cu	-1.59322e-33	0.17915	-0	0.895
Mof_Cu	Cu	0.5	0.32085	0.5	0.95
Mof_Cu	Cu	-0	0.82085	-0	0.898
Mof_Cu	Cu	0.32085	0.5	0.5	0.95
Mof_Cu	Cu	0.82085	0	-0	0.898
Mof_Cu	Cu	0.67915	0.5	0.5	0.953
Mof_Cu	Cu	0.17915	0	-0	0.895
Mof_Cl	Cl	0.5	0.5	0.5	-0.652
Mof_Cl	Cl	-0	0	-0	-0.781
Mof_C 	C 	0.303	0.697	0.6588	-0.519
Mof_C 	C 	0.267	0.733	0.7193	0.32
Mof_C 	C 	0.3402	0.6598	0.5956	0.807
Mof_C 	C 	0.803	0.197	0.1588	-0.537
Mof_C 	C 	0.767	0.233	0.2193	0.323
Mof_C 	C 	0.8402	0.1598	0.0956	0.829
Mof_C 	C 	0.697	0.303	0.6588	-0.519
Mof_C 	C 	0.733	0.267	0.7193	0.32
Mof_C 	C 	0.6598	0.3402	0.5956	0.807
Mof_C 	C 	0.197	0.803	0.1588	-0.537
Mof_C 	C 	0.233	0.767	0.2193	0.323
Mof_C 	C 	0.1598	0.8402	0.0956	0.829
Mof_C 	C 	0.303	0.303	0.6588	-0.52
Mof_C 	C 	0.267	0.267	0.7193	0.316
Mof_C 	C 	0.3402	0.3402	0.5956	0.812
Mof_C 	C 	0.803	0.803	0.1588	-0.53
Mof_C 	C 	0.767	0.767	0.2193	0.326
Mof_C 	C 	0.8402	0.8402	0.0956	0.812
Mof_C 	C 	0.697	0.697	0.6588	-0.517
Mof_C 	C 	0.733	0.733	0.7193	0.324
Mof_C 	C 	0.6598	0.6598	0.5956	0.803
Mof_C 	C 	0.197	0.197	0.1588	-0.544
Mof_C 	C 	0.233	0.233	0.2193	0.321
Mof_C 	C 	0.1598	0.1598	0.0956	0.843
Mof_C 	C 	0.697	0.697	0.3412	-0.535
Mof_C 	C 	0.733	0.733	0.2807	0.338
Mof_C 	C 	0.6598	0.6598	0.4044	0.807
Mof_C 	C 	0.197	0.197	0.8412	-0.506
Mof_C 	C 	0.233	0.233	0.7807	0.322
Mof_C 	C 	0.1598	0.1598	0.9044	0.782
Mof_C 	C 	0.303	0.303	0.3412	-0.538
Mof_C 	C 	0.267	0.267	0.2807	0.331
Mof_C 	C 	0.3402	0.3402	0.4044	0.817
Mof_C 	C 	0.803	0.803	0.8412	-0.495
Mof_C 	C 	0.767	0.767	0.7807	0.327
Mof_C 	C 	0.8402	0.8402	0.9044	0.755
Mof_C 	C 	0.697	0.303	0.3412	-0.537
Mof_C 	C 	0.733	0.267	0.2807	0.335
Mof_C 	C 	0.6598	0.3402	0.4044	0.812
Mof_C 	C 	0.197	0.803	0.8412	-0.501
Mof_C 	C 	0.233	0.767	0.7807	0.325
Mof_C 	C 	0.1598	0.8402	0.9044	0.769
Mof_C 	C 	0.303	0.697	0.3412	-0.537
Mof_C 	C 	0.267	0.733	0.2807	0.335
Mof_C 	C 	0.3402	0.6598	0.4044	0.812
Mof_C 	C 	0.803	0.197	0.8412	-0.501
Mof_C 	C 	0.767	0.233	0.7807	0.325
Mof_C 	C 	0.8402	0.1598	0.9044	0.769
Mof_C 	C 	0.308	0.808	0.75	-0.779
Mof_H 	H 	0.3545	0.8545	0.75	0.278
Mof_C 	C 	0.692	0.192	0.75	-0.78
Mof_H 	H 	0.6455	0.1455	0.75	0.267
Mof_C 	C 	0.192	0.308	0.75	-0.781
Mof_H 	H 	0.1455	0.3545	0.75	0.266
Mof_C 	C 	0.808	0.692	0.75	-0.778
Mof_H 	H 	0.8545	0.6455	0.75	0.279
Mof_C 	C 	0.692	0.808	0.25	-0.808
Mof_H 	H 	0.6455	0.8545	0.25	0.283
Mof_C 	C 	0.308	0.192	0.25	-0.813
Mof_H 	H 	0.3545	0.1455	0.25	0.269
Mof_C 	C 	0.808	0.308	0.25	-0.81
Mof_H 	H 	0.8545	0.3545	0.25	0.282
Mof_C 	C 	0.192	0.692	0.25	-0.812
Mof_H 	H 	0.1455	0.6455	0.25	0.27
Mof_C 	C 	0.692	0.192	0.25	-0.812
Mof_H 	H 	0.6455	0.1455	0.25	0.27
Mof_C 	C 	0.308	0.808	0.25	-0.81
Mof_H 	H 	0.3545	0.8545	0.25	0.282
Mof_C 	C 	0.808	0.692	0.25	-0.808
Mof_H 	H 	0.8545	0.6455	0.25	0.283
Mof_C 	C 	0.192	0.308	0.25	-0.813
Mof_H 	H 	0.1455	0.3545	0.25	0.269
Mof_C 	C 	0.308	0.192	0.75	-0.781
Mof_H 	H 	0.3545	0.1455	0.75	0.266
Mof_C 	C 	0.692	0.808	0.75	-0.778
Mof_H 	H 	0.6455	0.8545	0.75	0.279
Mof_C 	C 	0.192	0.692	0.75	-0.78
Mof_H 	H 	0.1455	0.6455	0.75	0.267
Mof_C 	C 	0.808	0.308	0.75	-0.779
Mof_H 	H 	0.8545	0.3545	0.75	0.278
_end
