data_functionalizedCrystal
_audit_creation_method	'EQeq! by Chris Wilmer'
_symmetry_space_group_name_H-M	'P1'
_symmetry_Int_Tables_number	1
_symmetry_cell_setting	triclinic
loop_
_symmetry_equiv_pos_as_xyz
  x,y,z
_cell_length_a	13.0832
_cell_length_b	13.0832
_cell_length_c	16.1383
_cell_angle_alpha	92.3915
_cell_angle_beta	92.3915
_cell_angle_gamma	97.3506
loop_
_atom_site_label
_atom_site_type_symbol
_atom_site_fract_x
_atom_site_fract_y
_atom_site_fract_z
_atom_site_charge
Mof_Zn	Zn	0.6792	0.6792	0.87164	1.216
Mof_Zn	Zn	0.6439	0.6439	0.6908	1.217
Mof_H 	H 	0.6966	0.1908	0.9436	0.059
Mof_H 	H 	0.5787	0.5493	0.1425	0.039
Mof_H 	H 	0.6914	0.0118	0.8819	0.052
Mof_H 	H 	0.1322	0.6316	0.6179	0.057
Mof_H 	H 	0.7637	0.6829	0.2799	0.045
Mof_H 	H 	0.3114	0.6356	0.6797	0.046
Mof_H 	H 	0.6428	0.562	0.284	0.011
Mof_H 	H 	0.1908	0.6966	0.9436	0.059
Mof_H 	H 	0.782	0.717	0.5582	0.02
Mof_H 	H 	0.5511	0.6317	0.2852	0.039
Mof_H 	H 	0.8457	0.7157	0.1583	0.007
Mof_H 	H 	0.6829	0.7637	0.2799	0.045
Mof_H 	H 	0.5493	0.5787	0.1425	0.039
Mof_H 	H 	0.7044	0.504	0.5524	0.008
Mof_H 	H 	0.717	0.782	0.5582	0.02
Mof_H 	H 	0.6316	0.1322	0.6179	0.057
Mof_H 	H 	0.5605	0.7605	0.552	0.022
Mof_H 	H 	0.8119	0.7809	0.1652	0.028
Mof_H 	H 	0.494	0.5588	0.5466	0.008
Mof_H 	H 	0.6997	0.4977	0.407	0.026
Mof_H 	H 	0.6356	0.3114	0.6797	0.046
Mof_H 	H 	0.7802	0.7146	0.4131	0.032
Mof_H 	H 	0.8392	0.7104	0.013	0.001
Mof_H 	H 	0.5588	0.494	0.5466	0.008
Mof_H 	H 	0.6555	0.5271	0.0099	0.012
Mof_H 	H 	0.3629	0.6845	0.9275	0.03
Mof_H 	H 	0.7157	0.8457	0.1583	0.007
Mof_H 	H 	0.0118	0.6914	0.8819	0.052
Mof_H 	H 	0.6407	0.9595	0.6352	0.032
Mof_H 	H 	0.5564	0.4922	0.4015	0.034
Mof_H 	H 	0.5336	0.6608	0.1551	0.013
Mof_H 	H 	0.5529	0.5829	0.9978	0.018
Mof_H 	H 	0.504	0.7044	0.5524	0.008
Mof_H 	H 	0.6664	0.7464	0.2766	-0.021
Mof_H 	H 	0.6317	0.5511	0.2852	0.039
Mof_H 	H 	0.7104	0.8392	0.013	0.001
Mof_H 	H 	0.4922	0.5564	0.4015	0.034
Mof_H 	H 	0.785	0.8156	0.0205	0.02
Mof_H 	H 	0.7146	0.7802	0.4131	0.032
Mof_H 	H 	0.5829	0.5529	0.9978	0.018
Mof_H 	H 	0.5558	0.7542	0.4069	0.029
Mof_H 	H 	0.4977	0.6997	0.407	0.026
Mof_H 	H 	0.6845	0.3629	0.9275	0.03
Mof_H 	H 	0.7605	0.5605	0.552	0.022
Mof_H 	H 	0.5271	0.6555	0.0099	0.012
Mof_H 	H 	0.7464	0.6664	0.2766	-0.021
Mof_H 	H 	0.6608	0.5336	0.1551	0.013
Mof_H 	H 	0.9595	0.6407	0.6352	0.032
Mof_H 	H 	0.562	0.6428	0.284	0.011
Mof_H 	H 	0.7542	0.5558	0.4069	0.029
Mof_H 	H 	0.7809	0.8119	0.1652	0.028
Mof_H 	H 	0.8156	0.785	0.0205	0.02
Mof_C 	C 	0.7039	0.7811	0.1281	0.047
Mof_C 	C 	0.6752	0.6752	0.258	-0.057
Mof_C 	C 	0.7772	0.7004	0.0418	0.052
Mof_C 	C 	0.5521	0.5905	0.5195	0.003
Mof_C 	C 	0.551	0.5892	0.4333	-0.04
Mof_C 	C 	0.6713	0.5509	0.4366	-0.024
Mof_C 	C 	0.1087	0.6429	0.672	-0.091
Mof_C 	C 	0.7592	0.7408	0.1312	-0.074
Mof_C 	C 	0.6659	0.9697	0.7609	-0.102
Mof_C 	C 	0.143	0.6722	0.8209	0.022
Mof_C 	C 	0.6831	0.7221	0.4402	-0.036
Mof_C 	C 	0.6357	0.6357	0.3936	0.032
Mof_C 	C 	0.6429	0.1087	0.672	-0.091
Mof_C 	C 	0.6583	0.3527	0.8007	-0.105
Mof_C 	C 	0.0064	0.6486	0.6823	0.024
Mof_C 	C 	0.9697	0.6659	0.7609	-0.102
Mof_C 	C 	0.5905	0.5521	0.5195	0.003
Mof_C 	C 	0.6768	0.3162	0.8803	0.022
Mof_C 	C 	0.7408	0.7592	0.1312	-0.074
Mof_C 	C 	0.67423	0.55477	0.5228	0.015
Mof_C 	C 	0.6678	0.5918	0.04	0.047
Mof_C 	C 	0.7032	0.5858	0.4363	-0.033
Mof_C 	C 	0.6536	0.1796	0.7412	0.018
Mof_C 	C 	0.7614	0.7432	0.0453	-0.052
Mof_C 	C 	0.6054	0.6232	0.0318	-0.041
Mof_C 	C 	0.5509	0.6713	0.4366	-0.024
Mof_C 	C 	0.7232	0.6844	0.5264	-0.002
Mof_C 	C 	0.6331	0.6331	0.3025	-0.07
Mof_C 	C 	0.6783	0.0369	0.8286	-0.025
Mof_C 	C 	0.6232	0.6054	0.0318	-0.041
Mof_C 	C 	0.5956	0.6712	0.1263	0.065
Mof_C 	C 	0.7811	0.7039	0.1281	0.047
Mof_C 	C 	0.55477	0.67423	0.5228	0.015
Mof_C 	C 	0.6032	0.6208	0.1177	-0.094
Mof_C 	C 	0.7004	0.7772	0.0418	0.052
Mof_C 	C 	0.6208	0.6032	0.1177	-0.094
Mof_C 	C 	0.6837	0.2143	0.8897	-0.093
Mof_C 	C 	0.669	0.8572	0.7712	0.408
Mof_C 	C 	0.3527	0.6583	0.8007	-0.105
Mof_C 	C 	0.5858	0.7032	0.4363	-0.033
Mof_C 	C 	0.6926	0.6926	0.2615	0.023
Mof_C 	C 	0.6799	0.6799	0.1674	-0.005
Mof_C 	C 	0.65401	0.46599	0.7908	0.406
Mof_C 	C 	0.6844	0.7232	0.5264	-0.002
Mof_C 	C 	0.0369	0.6783	0.8286	-0.025
Mof_C 	C 	0.6712	0.5956	0.1263	0.065
Mof_C 	C 	0.6475	0.2861	0.7331	-0.024
Mof_C 	C 	0.3162	0.6768	0.8803	0.022
Mof_C 	C 	0.1796	0.6536	0.7412	0.018
Mof_C 	C 	0.70711	0.58869	0.5226	-0.022
Mof_C 	C 	0.5892	0.551	0.4333	-0.04
Mof_C 	C 	0.2861	0.6475	0.7331	-0.024
Mof_C 	C 	0.7432	0.7614	0.0453	-0.052
Mof_C 	C 	0.8572	0.669	0.7712	0.408
Mof_C 	C 	0.2143	0.6837	0.8897	-0.093
Mof_C 	C 	0.46599	0.65401	0.7908	0.406
Mof_C 	C 	0.6486	0.0064	0.6823	0.024
Mof_C 	C 	0.6722	0.143	0.8209	0.022
Mof_C 	C 	0.623	0.623	0.3021	-0.029
Mof_C 	C 	0.6898	0.6898	0.1704	-0.005
Mof_C 	C 	0.5918	0.6678	0.04	0.047
Mof_C 	C 	0.58869	0.70711	0.5226	-0.022
Mof_C 	C 	0.7221	0.6831	0.4402	-0.036
Mof_C 	C 	0.6261	0.6261	0.3933	0.032
Mof_N 	N 	0.6382	0.6382	0.566	-0.102
Mof_N 	N 	0.6825	0.6825	0.9978	-0.114
Mof_N 	N 	0.6329	0.6329	0.5659	-0.099
Mof_N 	N 	0.6844	0.6844	0.9955	-0.093
Mof_O 	O 	0.49467	0.63893	0.7194	-0.479
Mof_O 	O 	0.66586	0.52274	0.85487	-0.48
Mof_O 	O 	0.7996	0.6556	0.7068	-0.477
Mof_O 	O 	0.63893	0.49467	0.7194	-0.479
Mof_O 	O 	0.82791	0.68369	0.84218	-0.475
Mof_O 	O 	0.52274	0.66586	0.85487	-0.48
Mof_O 	O 	0.68369	0.82791	0.84218	-0.475
Mof_O 	O 	0.6556	0.7996	0.7068	-0.477
Mof_Zn	Zn	0.3208	0.3208	0.12836	1.216
Mof_Zn	Zn	0.3561	0.3561	0.3092	1.217
Mof_H 	H 	0.2191	0.1881	0.8348	0.028
Mof_H 	H 	0.9882	0.3086	0.1181	0.052
Mof_H 	H 	0.4412	0.506	0.4534	0.008
Mof_H 	H 	0.2198	0.2854	0.5869	0.032
Mof_H 	H 	0.3392	0.4664	0.8449	0.013
Mof_H 	H 	0.2896	0.1608	0.987	0.001
Mof_H 	H 	0.8678	0.3684	0.3821	0.057
Mof_H 	H 	0.438	0.3572	0.716	0.011
Mof_H 	H 	0.1543	0.2843	0.8417	0.007
Mof_H 	H 	0.2854	0.2198	0.5869	0.032
Mof_H 	H 	0.4471	0.4171	0.0022	0.018
Mof_H 	H 	0.218	0.283	0.4418	0.02
Mof_H 	H 	0.4729	0.3445	0.9901	0.012
Mof_H 	H 	0.8092	0.3034	0.0564	0.059
Mof_H 	H 	0.4395	0.2395	0.448	0.022
Mof_H 	H 	0.3155	0.6371	0.0725	0.03
Mof_H 	H 	0.2843	0.1543	0.8417	0.007
Mof_H 	H 	0.4489	0.3683	0.7148	0.039
Mof_H 	H 	0.3086	0.9882	0.1181	0.052
Mof_H 	H 	0.496	0.2956	0.4476	0.008
Mof_H 	H 	0.6371	0.3155	0.0725	0.03
Mof_H 	H 	0.2395	0.4395	0.448	0.022
Mof_H 	H 	0.3684	0.8678	0.3821	0.057
Mof_H 	H 	0.1608	0.2896	0.987	0.001
Mof_H 	H 	0.4442	0.2458	0.5931	0.029
Mof_H 	H 	0.2956	0.496	0.4476	0.008
Mof_H 	H 	0.4213	0.4507	0.8575	0.039
Mof_H 	H 	0.6886	0.3644	0.3203	0.046
Mof_H 	H 	0.2536	0.3336	0.7234	-0.021
Mof_H 	H 	0.5078	0.4436	0.5985	0.034
Mof_H 	H 	0.3171	0.2363	0.7201	0.045
Mof_H 	H 	0.4507	0.4213	0.8575	0.039
Mof_H 	H 	0.3445	0.4729	0.9901	0.012
Mof_H 	H 	0.3644	0.6886	0.3203	0.046
Mof_H 	H 	0.2363	0.3171	0.7201	0.045
Mof_H 	H 	0.4171	0.4471	0.0022	0.018
Mof_H 	H 	0.0405	0.3593	0.3648	0.032
Mof_H 	H 	0.1881	0.2191	0.8348	0.028
Mof_H 	H 	0.3034	0.8092	0.0564	0.059
Mof_H 	H 	0.4436	0.5078	0.5985	0.034
Mof_H 	H 	0.3683	0.4489	0.7148	0.039
Mof_H 	H 	0.1844	0.215	0.9795	0.02
Mof_H 	H 	0.283	0.218	0.4418	0.02
Mof_H 	H 	0.3593	0.0405	0.3648	0.032
Mof_H 	H 	0.4664	0.3392	0.8449	0.013
Mof_H 	H 	0.3572	0.438	0.716	0.011
Mof_H 	H 	0.506	0.4412	0.4534	0.008
Mof_H 	H 	0.2458	0.4442	0.5931	0.029
Mof_H 	H 	0.5023	0.3003	0.593	0.026
Mof_H 	H 	0.215	0.1844	0.9795	0.02
Mof_H 	H 	0.3336	0.2536	0.7234	-0.021
Mof_H 	H 	0.3003	0.5023	0.593	0.026
Mof_C 	C 	0.4044	0.3288	0.8737	0.065
Mof_C 	C 	0.3163	0.7857	0.1103	-0.093
Mof_C 	C 	0.4108	0.449	0.5667	-0.04
Mof_C 	C 	0.2768	0.3156	0.4736	-0.002
Mof_C 	C 	0.8204	0.3464	0.2588	0.018
Mof_C 	C 	0.53401	0.34599	0.2092	0.406
Mof_C 	C 	0.4142	0.2968	0.5637	-0.033
Mof_C 	C 	0.0303	0.3341	0.2391	-0.102
Mof_C 	C 	0.857	0.3278	0.1791	0.022
Mof_C 	C 	0.3464	0.8204	0.2588	0.018
Mof_C 	C 	0.2968	0.4142	0.5637	-0.033
Mof_C 	C 	0.2779	0.3169	0.5598	-0.036
Mof_C 	C 	0.449	0.4108	0.5667	-0.04
Mof_C 	C 	0.2592	0.2408	0.8688	-0.074
Mof_C 	C 	0.2961	0.2189	0.8719	0.047
Mof_C 	C 	0.4095	0.4479	0.4805	0.003
Mof_C 	C 	0.4082	0.3322	0.96	0.047
Mof_C 	C 	0.3792	0.3968	0.8823	-0.094
Mof_C 	C 	0.3248	0.3248	0.742	-0.057
Mof_C 	C 	0.3288	0.4044	0.8737	0.065
Mof_C 	C 	0.331	0.1428	0.2288	0.408
Mof_C 	C 	0.1428	0.331	0.2288	0.408
Mof_C 	C 	0.7139	0.3525	0.2669	-0.024
Mof_C 	C 	0.8913	0.3571	0.328	-0.091
Mof_C 	C 	0.2386	0.2568	0.9547	-0.052
Mof_C 	C 	0.6838	0.3232	0.1197	0.022
Mof_C 	C 	0.3768	0.3946	0.9682	-0.041
Mof_C 	C 	0.3571	0.8913	0.328	-0.091
Mof_C 	C 	0.6473	0.3417	0.1993	-0.105
Mof_C 	C 	0.3341	0.0303	0.2391	-0.102
Mof_C 	C 	0.3968	0.3792	0.8823	-0.094
Mof_C 	C 	0.3287	0.4491	0.5634	-0.024
Mof_C 	C 	0.4479	0.4095	0.4805	0.003
Mof_C 	C 	0.3514	0.9936	0.3177	0.024
Mof_C 	C 	0.32577	0.44523	0.4772	0.015
Mof_C 	C 	0.9936	0.3514	0.3177	0.024
Mof_C 	C 	0.9631	0.3217	0.1714	-0.025
Mof_C 	C 	0.7857	0.3163	0.1103	-0.093
Mof_C 	C 	0.3669	0.3669	0.6975	-0.07
Mof_C 	C 	0.2228	0.2996	0.9582	0.052
Mof_C 	C 	0.3739	0.3739	0.6067	0.032
Mof_C 	C 	0.4491	0.3287	0.5634	-0.024
Mof_C 	C 	0.3278	0.857	0.1791	0.022
Mof_C 	C 	0.44523	0.32577	0.4772	0.015
Mof_C 	C 	0.41131	0.29289	0.4774	-0.022
Mof_C 	C 	0.3156	0.2768	0.4736	-0.002
Mof_C 	C 	0.3417	0.6473	0.1993	-0.105
Mof_C 	C 	0.3201	0.3201	0.8326	-0.005
Mof_C 	C 	0.3074	0.3074	0.7385	0.023
Mof_C 	C 	0.29289	0.41131	0.4774	-0.022
Mof_C 	C 	0.3169	0.2779	0.5598	-0.036
Mof_C 	C 	0.2568	0.2386	0.9547	-0.052
Mof_C 	C 	0.3217	0.9631	0.1714	-0.025
Mof_C 	C 	0.3643	0.3643	0.6064	0.032
Mof_C 	C 	0.3232	0.6838	0.1197	0.022
Mof_C 	C 	0.377	0.377	0.6979	-0.029
Mof_C 	C 	0.3102	0.3102	0.8296	-0.005
Mof_C 	C 	0.3946	0.3768	0.9682	-0.041
Mof_C 	C 	0.2408	0.2592	0.8688	-0.074
Mof_C 	C 	0.3322	0.4082	0.96	0.047
Mof_C 	C 	0.2189	0.2961	0.8719	0.047
Mof_C 	C 	0.2996	0.2228	0.9582	0.052
Mof_C 	C 	0.34599	0.53401	0.2092	0.406
Mof_C 	C 	0.3525	0.7139	0.2669	-0.024
Mof_N 	N 	0.3618	0.3618	0.434	-0.102
Mof_N 	N 	0.3156	0.3156	0.0045	-0.093
Mof_N 	N 	0.3671	0.3671	0.4341	-0.099
Mof_N 	N 	0.3175	0.3175	0.0022	-0.114
Mof_O 	O 	0.50533	0.36107	0.2806	-0.479
Mof_O 	O 	0.17209	0.31631	0.15782	-0.475
Mof_O 	O 	0.31631	0.17209	0.15782	-0.475
Mof_O 	O 	0.2004	0.3444	0.2932	-0.477
Mof_O 	O 	0.47726	0.33414	0.14513	-0.48
Mof_O 	O 	0.33414	0.47726	0.14513	-0.48
Mof_O 	O 	0.3444	0.2004	0.2932	-0.477
Mof_O 	O 	0.36107	0.50533	0.2806	-0.479
_end
