data_functionalizedCrystal
_audit_creation_method	'EQeq! by Chris Wilmer'
_symmetry_space_group_name_H-M	'P1'
_symmetry_Int_Tables_number	1
_symmetry_cell_setting	triclinic
loop_
_symmetry_equiv_pos_as_xyz
  x,y,z
_cell_length_a	11.771
_cell_length_b	11.771
_cell_length_c	11.771
_cell_angle_alpha	90
_cell_angle_beta	90
_cell_angle_gamma	90
loop_
_atom_site_label
_atom_site_type_symbol
_atom_site_fract_x
_atom_site_fract_y
_atom_site_fract_z
_atom_site_charge
Mof_Cu	Cu	-0	0	-0	3.111
Mof_Cu	Cu	-5.86422e-33	0.5	0.5	9.462
Mof_Cu	Cu	0.5	-3.86946e-33	0.5	9.462
Mof_Cu	Cu	0.5	0.5	-0	9.462
Mof_Zn	Zn	0.25	0.25	0.25	1.686
Mof_Zn	Zn	0.75	0.75	0.25	1.475
Mof_Zn	Zn	0.75	0.25	0.75	1.475
Mof_Zn	Zn	0.25	0.75	0.75	1.475
Mof_C 	C 	0.094	0.094	0.094	21.309
Mof_N 	N 	0.15	0.15	0.15	-6.196
Mof_C 	C 	0.094	0.594	0.594	22.143
Mof_N 	N 	0.15	0.65	0.65	-6.234
Mof_C 	C 	0.594	0.094	0.594	22.144
Mof_N 	N 	0.65	0.15	0.65	-6.233
Mof_C 	C 	0.594	0.594	0.094	22.144
Mof_N 	N 	0.65	0.65	0.15	-6.233
Mof_C 	C 	0.906	0.906	0.094	0.6
Mof_N 	N 	0.85	0.85	0.15	-0.346
Mof_C 	C 	0.906	0.406	0.594	11.19
Mof_N 	N 	0.85	0.35	0.65	-3.152
Mof_C 	C 	0.406	0.906	0.594	11.19
Mof_N 	N 	0.35	0.85	0.65	-3.152
Mof_C 	C 	0.406	0.406	0.094	22.223
Mof_N 	N 	0.35	0.35	0.15	-6.266
Mof_C 	C 	0.906	0.094	0.906	0.6
Mof_N 	N 	0.85	0.15	0.85	-0.346
Mof_C 	C 	0.906	0.594	0.406	11.19
Mof_N 	N 	0.85	0.65	0.35	-3.152
Mof_C 	C 	0.406	0.094	0.406	22.223
Mof_N 	N 	0.35	0.15	0.35	-6.266
Mof_C 	C 	0.406	0.594	0.906	11.19
Mof_N 	N 	0.35	0.65	0.85	-3.152
Mof_C 	C 	0.094	0.906	0.906	0.6
Mof_N 	N 	0.15	0.85	0.85	-0.346
Mof_C 	C 	0.094	0.406	0.406	22.223
Mof_N 	N 	0.15	0.35	0.35	-6.266
Mof_C 	C 	0.594	0.906	0.406	11.19
Mof_N 	N 	0.65	0.85	0.35	-3.152
Mof_C 	C 	0.594	0.406	0.906	11.19
Mof_N 	N 	0.65	0.35	0.85	-3.152
Mof_C 	C 	0.929	0.929	0.0429	4.249
Mof_C 	C 	0.929	0.429	0.5429	-2.008
Mof_C 	C 	0.429	0.929	0.5429	-2.008
Mof_C 	C 	0.429	0.429	0.0429	-4.303
Mof_C 	C 	0.071	0.071	0.0429	-6.478
Mof_C 	C 	0.071	0.571	0.5429	-7.691
Mof_C 	C 	0.571	0.071	0.5429	-7.691
Mof_C 	C 	0.571	0.571	0.0429	-4.341
Mof_C 	C 	0.071	0.929	0.9571	-2.288
Mof_C 	C 	0.071	0.429	0.4571	-7.792
Mof_C 	C 	0.571	0.929	0.4571	-2.154
Mof_C 	C 	0.571	0.429	0.9571	-5.516
Mof_C 	C 	0.929	0.071	0.9571	-2.288
Mof_C 	C 	0.929	0.571	0.4571	-2.154
Mof_C 	C 	0.429	0.071	0.4571	-7.792
Mof_C 	C 	0.429	0.571	0.9571	-5.516
Mof_C 	C 	0.0429	0.929	0.929	4.249
Mof_C 	C 	0.0429	0.429	0.429	-4.303
Mof_C 	C 	0.5429	0.929	0.429	-2.008
Mof_C 	C 	0.5429	0.429	0.929	-2.008
Mof_C 	C 	0.0429	0.071	0.071	-6.478
Mof_C 	C 	0.0429	0.571	0.571	-4.341
Mof_C 	C 	0.5429	0.071	0.571	-7.691
Mof_C 	C 	0.5429	0.571	0.071	-7.691
Mof_C 	C 	0.9571	0.071	0.929	-2.288
Mof_C 	C 	0.9571	0.571	0.429	-5.516
Mof_C 	C 	0.4571	0.071	0.429	-7.792
Mof_C 	C 	0.4571	0.571	0.929	-2.154
Mof_C 	C 	0.9571	0.929	0.071	-2.288
Mof_C 	C 	0.9571	0.429	0.571	-5.516
Mof_C 	C 	0.4571	0.929	0.571	-2.154
Mof_C 	C 	0.4571	0.429	0.071	-7.792
Mof_C 	C 	0.929	0.0429	0.929	4.249
Mof_C 	C 	0.929	0.5429	0.429	-2.008
Mof_C 	C 	0.429	0.0429	0.429	-4.303
Mof_C 	C 	0.429	0.5429	0.929	-2.008
Mof_C 	C 	0.071	0.0429	0.071	-6.478
Mof_C 	C 	0.071	0.5429	0.571	-7.691
Mof_C 	C 	0.571	0.0429	0.571	-4.341
Mof_C 	C 	0.571	0.5429	0.071	-7.691
Mof_C 	C 	0.929	0.9571	0.071	-2.288
Mof_C 	C 	0.929	0.4571	0.571	-2.154
Mof_C 	C 	0.429	0.9571	0.571	-5.516
Mof_C 	C 	0.429	0.4571	0.071	-7.792
Mof_C 	C 	0.071	0.9571	0.929	-2.288
Mof_C 	C 	0.071	0.4571	0.429	-7.792
Mof_C 	C 	0.571	0.9571	0.429	-5.516
Mof_C 	C 	0.571	0.4571	0.929	-2.154
_end
