data_functionalizedCrystal
_audit_creation_method	'EQeq! by Chris Wilmer'
_symmetry_space_group_name_H-M	'P1'
_symmetry_Int_Tables_number	1
_symmetry_cell_setting	triclinic
loop_
_symmetry_equiv_pos_as_xyz
  x,y,z
_cell_length_a	20.096
_cell_length_b	20.096
_cell_length_c	16.372
_cell_angle_alpha	90
_cell_angle_beta	90
_cell_angle_gamma	120
loop_
_atom_site_label
_atom_site_type_symbol
_atom_site_fract_x
_atom_site_fract_y
_atom_site_fract_z
_atom_site_charge
Mof_O 	O 	0.2221	0.0783	0.0597	-0.294
Mof_C 	C 	0.3824	0.2323	0.9477	0.119
Mof_H 	H 	0.3551	0.2471	0.9107	0.017
Mof_C 	C 	0.4621	0.2724	0.9482	-0.083
Mof_H 	H 	0.4897	0.3147	0.9113	0.072
Mof_C 	C 	0.0693	0.8391	0.301	0.167
Mof_H 	H 	0.1103	0.8632	0.262	-0.406
Mof_C 	C 	0.0781	0.8043	0.3703	0.359
Mof_H 	H 	0.1253	0.8044	0.3794	-0.11
Mof_C 	C 	0.0179	0.7681	0.4257	0.364
Mof_C 	C 	0.9489	0.7665	0.4121	0.429
Mof_H 	H 	0.9079	0.7424	0.4512	-0.047
Mof_C 	C 	0.9397	0.8012	0.3429	0.277
Mof_H 	H 	0.8924	0.8011	0.3339	-0.061
Mof_O 	O 	0.9217	0.1438	0.0597	-0.23
Mof_C 	C 	0.7677	0.1501	0.9477	0.109
Mof_H 	H 	0.7529	0.108	0.9107	0.008
Mof_C 	C 	0.7276	0.1897	0.9482	-0.078
Mof_H 	H 	0.6853	0.175	0.9113	0.064
Mof_C 	C 	0.1609	0.2302	0.301	-0.315
Mof_H 	H 	0.1368	0.2471	0.262	0.294
Mof_C 	C 	0.1957	0.2738	0.3703	0.093
Mof_H 	H 	0.1956	0.3209	0.3794	0.017
Mof_C 	C 	0.2319	0.2498	0.4257	-0.089
Mof_C 	C 	0.2335	0.1824	0.4121	0.074
Mof_H 	H 	0.2576	0.1655	0.4512	-0.013
Mof_C 	C 	0.1988	0.1385	0.3429	-0.131
Mof_H 	H 	0.1989	0.0913	0.3339	0.154
Mof_O 	O 	0.8562	0.7779	0.0597	-0.272
Mof_C 	C 	0.8499	0.6176	0.9477	0.108
Mof_H 	H 	0.892	0.6449	0.9107	0.041
Mof_C 	C 	0.8103	0.5379	0.9482	-0.068
Mof_H 	H 	0.825	0.5103	0.9113	0.078
Mof_C 	C 	0.7698	0.9307	0.301	-0.234
Mof_H 	H 	0.7529	0.8897	0.262	0.32
Mof_C 	C 	0.7262	0.9219	0.3703	-0.299
Mof_H 	H 	0.6791	0.8747	0.3794	0.165
Mof_C 	C 	0.7502	0.9821	0.4257	-0.24
Mof_C 	C 	0.8176	0.0511	0.4121	-0.811
Mof_H 	H 	0.8345	0.0921	0.4512	0.21
Mof_C 	C 	0.8615	0.0603	0.3429	-0.057
Mof_H 	H 	0.9087	0.1076	0.3339	0.02
Mof_O 	O 	0.7779	0.9217	0.0597	-0.232
Mof_C 	C 	0.6176	0.7677	0.9477	0.106
Mof_H 	H 	0.6449	0.7529	0.9107	0.025
Mof_C 	C 	0.5379	0.7276	0.9482	-0.071
Mof_H 	H 	0.5103	0.6853	0.9113	0.07
Mof_C 	C 	0.9307	0.1609	0.301	-0.323
Mof_H 	H 	0.8897	0.1368	0.262	0.523
Mof_C 	C 	0.9219	0.1957	0.3703	-0.336
Mof_H 	H 	0.8747	0.1956	0.3794	0.18
Mof_C 	C 	0.9821	0.2319	0.4257	-0.268
Mof_C 	C 	0.0511	0.2335	0.4121	-0.667
Mof_H 	H 	0.0921	0.2576	0.4512	0.162
Mof_C 	C 	0.0603	0.1988	0.3429	-0.159
Mof_H 	H 	0.1076	0.1989	0.3339	0.09
Mof_O 	O 	0.0783	0.8562	0.0597	-0.29
Mof_C 	C 	0.2323	0.8499	0.9477	0.113
Mof_H 	H 	0.2471	0.892	0.9107	0.037
Mof_C 	C 	0.2724	0.8103	0.9482	-0.072
Mof_H 	H 	0.3147	0.825	0.9113	0.079
Mof_C 	C 	0.8391	0.7698	0.301	0.021
Mof_H 	H 	0.8632	0.7529	0.262	-0.178
Mof_C 	C 	0.8043	0.7262	0.3703	0.03
Mof_H 	H 	0.8044	0.6791	0.3794	0.025
Mof_C 	C 	0.7681	0.7502	0.4257	0.099
Mof_C 	C 	0.7665	0.8176	0.4121	-0.265
Mof_H 	H 	0.7424	0.8345	0.4512	0.106
Mof_C 	C 	0.8012	0.8615	0.3429	0.153
Mof_H 	H 	0.8011	0.9087	0.3339	-0.03
Mof_O 	O 	0.1438	0.2221	0.0597	-0.273
Mof_C 	C 	0.1501	0.3824	0.9477	0.118
Mof_H 	H 	0.108	0.3551	0.9107	0.005
Mof_C 	C 	0.1897	0.4621	0.9482	-0.085
Mof_H 	H 	0.175	0.4897	0.9113	0.065
Mof_C 	C 	0.2302	0.0693	0.301	-0.081
Mof_H 	H 	0.2471	0.1103	0.262	-0.136
Mof_C 	C 	0.2738	0.0781	0.3703	0.456
Mof_H 	H 	0.3209	0.1253	0.3794	-0.133
Mof_C 	C 	0.2498	0.0179	0.4257	0.201
Mof_C 	C 	0.1824	0.9489	0.4121	0.63
Mof_H 	H 	0.1655	0.9079	0.4512	-0.121
Mof_C 	C 	0.1385	0.9397	0.3429	0.093
Mof_H 	H 	0.0913	0.8924	0.3339	0.055
Mof_O 	O 	0.0783	0.2221	0.9403	-0.266
Mof_C 	C 	0.2323	0.3824	0.0523	0.081
Mof_H 	H 	0.2471	0.3551	0.0893	0.02
Mof_C 	C 	0.2724	0.4621	0.0518	-0.124
Mof_H 	H 	0.3147	0.4897	0.0887	0.072
Mof_C 	C 	0.8391	0.0693	0.699	0.168
Mof_H 	H 	0.8632	0.1103	0.738	-0.406
Mof_C 	C 	0.8043	0.0781	0.6297	0.361
Mof_H 	H 	0.8044	0.1253	0.6206	-0.11
Mof_C 	C 	0.7681	0.0179	0.5743	0.365
Mof_C 	C 	0.7665	0.9489	0.5879	0.428
Mof_H 	H 	0.7424	0.9079	0.5488	-0.047
Mof_C 	C 	0.8012	0.9397	0.6571	0.276
Mof_H 	H 	0.8011	0.8924	0.6661	-0.061
Mof_O 	O 	0.1438	0.9217	0.9403	-0.204
Mof_C 	C 	0.1501	0.7677	0.0523	0.07
Mof_H 	H 	0.108	0.7529	0.0893	0.01
Mof_C 	C 	0.1897	0.7276	0.0518	-0.121
Mof_H 	H 	0.175	0.6853	0.0887	0.063
Mof_C 	C 	0.2302	0.1609	0.699	-0.314
Mof_H 	H 	0.2471	0.1368	0.738	0.294
Mof_C 	C 	0.2738	0.1957	0.6297	0.094
Mof_H 	H 	0.3209	0.1956	0.6206	0.017
Mof_C 	C 	0.2498	0.2319	0.5743	-0.088
Mof_C 	C 	0.1824	0.2335	0.5879	0.073
Mof_H 	H 	0.1655	0.2576	0.5488	-0.013
Mof_C 	C 	0.1385	0.1988	0.6571	-0.132
Mof_H 	H 	0.0913	0.1989	0.6661	0.154
Mof_O 	O 	0.7779	0.8562	0.9403	-0.245
Mof_C 	C 	0.6176	0.8499	0.0523	0.069
Mof_H 	H 	0.6449	0.892	0.0893	0.042
Mof_C 	C 	0.5379	0.8103	0.0518	-0.11
Mof_H 	H 	0.5103	0.825	0.0887	0.077
Mof_C 	C 	0.9307	0.7698	0.699	-0.233
Mof_H 	H 	0.8897	0.7529	0.738	0.32
Mof_C 	C 	0.9219	0.7262	0.6297	-0.298
Mof_H 	H 	0.8747	0.6791	0.6206	0.165
Mof_C 	C 	0.9821	0.7502	0.5743	-0.24
Mof_C 	C 	0.0511	0.8176	0.5879	-0.812
Mof_H 	H 	0.0921	0.8345	0.5488	0.21
Mof_C 	C 	0.0603	0.8615	0.6571	-0.057
Mof_H 	H 	0.1076	0.9087	0.6661	0.02
Mof_O 	O 	0.9217	0.7779	0.9403	-0.205
Mof_C 	C 	0.7677	0.6176	0.0523	0.067
Mof_H 	H 	0.7529	0.6449	0.0893	0.027
Mof_C 	C 	0.7276	0.5379	0.0518	-0.114
Mof_H 	H 	0.6853	0.5103	0.0887	0.069
Mof_C 	C 	0.1609	0.9307	0.699	-0.322
Mof_H 	H 	0.1368	0.8897	0.738	0.523
Mof_C 	C 	0.1957	0.9219	0.6297	-0.335
Mof_H 	H 	0.1956	0.8747	0.6206	0.18
Mof_C 	C 	0.2319	0.9821	0.5743	-0.267
Mof_C 	C 	0.2335	0.0511	0.5879	-0.668
Mof_H 	H 	0.2576	0.0921	0.5488	0.162
Mof_C 	C 	0.1988	0.0603	0.6571	-0.16
Mof_H 	H 	0.1989	0.1076	0.6661	0.091
Mof_O 	O 	0.8562	0.0783	0.9403	-0.264
Mof_C 	C 	0.8499	0.2323	0.0523	0.074
Mof_H 	H 	0.892	0.2471	0.0893	0.039
Mof_C 	C 	0.8103	0.2724	0.0518	-0.114
Mof_H 	H 	0.825	0.3147	0.0887	0.078
Mof_C 	C 	0.7698	0.8391	0.699	0.022
Mof_H 	H 	0.7529	0.8632	0.738	-0.179
Mof_C 	C 	0.7262	0.8043	0.6297	0.032
Mof_H 	H 	0.6791	0.8044	0.6206	0.025
Mof_C 	C 	0.7502	0.7681	0.5743	0.1
Mof_C 	C 	0.8176	0.7665	0.5879	-0.266
Mof_H 	H 	0.8345	0.7424	0.5488	0.107
Mof_C 	C 	0.8615	0.8012	0.6571	0.152
Mof_H 	H 	0.9087	0.8011	0.6661	-0.029
Mof_O 	O 	0.2221	0.1438	0.9403	-0.246
Mof_C 	C 	0.3824	0.1501	0.0523	0.078
Mof_H 	H 	0.3551	0.108	0.0893	0.007
Mof_C 	C 	0.4621	0.1897	0.0518	-0.127
Mof_H 	H 	0.4897	0.175	0.0887	0.064
Mof_C 	C 	0.0693	0.2302	0.699	-0.081
Mof_H 	H 	0.1103	0.2471	0.738	-0.136
Mof_C 	C 	0.0781	0.2738	0.6297	0.458
Mof_H 	H 	0.1253	0.3209	0.6206	-0.132
Mof_C 	C 	0.0179	0.2498	0.5743	0.201
Mof_C 	C 	0.9489	0.1824	0.5879	0.629
Mof_H 	H 	0.9079	0.1655	0.5488	-0.12
Mof_C 	C 	0.9397	0.1385	0.6571	0.092
Mof_H 	H 	0.8924	0.0913	0.6661	0.056
Mof_O 	O 	0.7779	0.9217	0.9403	-0.205
Mof_C 	C 	0.6176	0.7677	0.0523	0.067
Mof_H 	H 	0.6449	0.7529	0.0893	0.027
Mof_C 	C 	0.5379	0.7276	0.0518	-0.114
Mof_H 	H 	0.5103	0.6853	0.0887	0.069
Mof_C 	C 	0.9307	0.1609	0.699	-0.322
Mof_H 	H 	0.8897	0.1368	0.738	0.523
Mof_C 	C 	0.9219	0.1957	0.6297	-0.335
Mof_H 	H 	0.8747	0.1956	0.6206	0.18
Mof_C 	C 	0.9821	0.2319	0.5743	-0.267
Mof_C 	C 	0.0511	0.2335	0.5879	-0.668
Mof_H 	H 	0.0921	0.2576	0.5488	0.162
Mof_C 	C 	0.0603	0.1988	0.6571	-0.16
Mof_H 	H 	0.1076	0.1989	0.6661	0.091
Mof_O 	O 	0.0783	0.8562	0.9403	-0.264
Mof_C 	C 	0.2323	0.8499	0.0523	0.074
Mof_H 	H 	0.2471	0.892	0.0893	0.039
Mof_C 	C 	0.2724	0.8103	0.0518	-0.114
Mof_H 	H 	0.3147	0.825	0.0887	0.078
Mof_C 	C 	0.8391	0.7698	0.699	0.022
Mof_H 	H 	0.8632	0.7529	0.738	-0.179
Mof_C 	C 	0.8043	0.7262	0.6297	0.032
Mof_H 	H 	0.8044	0.6791	0.6206	0.025
Mof_C 	C 	0.7681	0.7502	0.5743	0.1
Mof_C 	C 	0.7665	0.8176	0.5879	-0.266
Mof_H 	H 	0.7424	0.8345	0.5488	0.107
Mof_C 	C 	0.8012	0.8615	0.6571	0.152
Mof_H 	H 	0.8011	0.9087	0.6661	-0.029
Mof_O 	O 	0.1438	0.2221	0.9403	-0.246
Mof_C 	C 	0.1501	0.3824	0.0523	0.078
Mof_H 	H 	0.108	0.3551	0.0893	0.007
Mof_C 	C 	0.1897	0.4621	0.0518	-0.127
Mof_H 	H 	0.175	0.4897	0.0887	0.064
Mof_C 	C 	0.2302	0.0693	0.699	-0.081
Mof_H 	H 	0.2471	0.1103	0.738	-0.136
Mof_C 	C 	0.2738	0.0781	0.6297	0.458
Mof_H 	H 	0.3209	0.1253	0.6206	-0.132
Mof_C 	C 	0.2498	0.0179	0.5743	0.201
Mof_C 	C 	0.1824	0.9489	0.5879	0.629
Mof_H 	H 	0.1655	0.9079	0.5488	-0.12
Mof_C 	C 	0.1385	0.9397	0.6571	0.092
Mof_H 	H 	0.0913	0.8924	0.6661	0.056
Mof_O 	O 	0.2221	0.0783	0.9403	-0.266
Mof_C 	C 	0.3824	0.2323	0.0523	0.081
Mof_H 	H 	0.3551	0.2471	0.0893	0.02
Mof_C 	C 	0.4621	0.2724	0.0518	-0.124
Mof_H 	H 	0.4897	0.3147	0.0887	0.072
Mof_C 	C 	0.0693	0.8391	0.699	0.168
Mof_H 	H 	0.1103	0.8632	0.738	-0.406
Mof_C 	C 	0.0781	0.8043	0.6297	0.361
Mof_H 	H 	0.1253	0.8044	0.6206	-0.11
Mof_C 	C 	0.0179	0.7681	0.5743	0.365
Mof_C 	C 	0.9489	0.7665	0.5879	0.428
Mof_H 	H 	0.9079	0.7424	0.5488	-0.047
Mof_C 	C 	0.9397	0.8012	0.6571	0.276
Mof_H 	H 	0.8924	0.8011	0.6661	-0.061
Mof_O 	O 	0.9217	0.1438	0.9403	-0.204
Mof_C 	C 	0.7677	0.1501	0.0523	0.07
Mof_H 	H 	0.7529	0.108	0.0893	0.01
Mof_C 	C 	0.7276	0.1897	0.0518	-0.121
Mof_H 	H 	0.6853	0.175	0.0887	0.063
Mof_C 	C 	0.1609	0.2302	0.699	-0.314
Mof_H 	H 	0.1368	0.2471	0.738	0.294
Mof_C 	C 	0.1957	0.2738	0.6297	0.094
Mof_H 	H 	0.1956	0.3209	0.6206	0.017
Mof_C 	C 	0.2319	0.2498	0.5743	-0.088
Mof_C 	C 	0.2335	0.1824	0.5879	0.073
Mof_H 	H 	0.2576	0.1655	0.5488	-0.013
Mof_C 	C 	0.1988	0.1385	0.6571	-0.132
Mof_H 	H 	0.1989	0.0913	0.6661	0.154
Mof_O 	O 	0.8562	0.7779	0.9403	-0.245
Mof_C 	C 	0.8499	0.6176	0.0523	0.069
Mof_H 	H 	0.892	0.6449	0.0893	0.042
Mof_C 	C 	0.8103	0.5379	0.0518	-0.11
Mof_H 	H 	0.825	0.5103	0.0887	0.077
Mof_C 	C 	0.7698	0.9307	0.699	-0.233
Mof_H 	H 	0.7529	0.8897	0.738	0.32
Mof_C 	C 	0.7262	0.9219	0.6297	-0.298
Mof_H 	H 	0.6791	0.8747	0.6206	0.165
Mof_C 	C 	0.7502	0.9821	0.5743	-0.24
Mof_C 	C 	0.8176	0.0511	0.5879	-0.812
Mof_H 	H 	0.8345	0.0921	0.5488	0.21
Mof_C 	C 	0.8615	0.0603	0.6571	-0.057
Mof_H 	H 	0.9087	0.1076	0.6661	0.02
Mof_O 	O 	0.9217	0.7779	0.0597	-0.232
Mof_C 	C 	0.7677	0.6176	0.9477	0.106
Mof_H 	H 	0.7529	0.6449	0.9107	0.025
Mof_C 	C 	0.7276	0.5379	0.9482	-0.071
Mof_H 	H 	0.6853	0.5103	0.9113	0.07
Mof_C 	C 	0.1609	0.9307	0.301	-0.323
Mof_H 	H 	0.1368	0.8897	0.262	0.523
Mof_C 	C 	0.1957	0.9219	0.3703	-0.336
Mof_H 	H 	0.1956	0.8747	0.3794	0.18
Mof_C 	C 	0.2319	0.9821	0.4257	-0.268
Mof_C 	C 	0.2335	0.0511	0.4121	-0.667
Mof_H 	H 	0.2576	0.0921	0.4512	0.162
Mof_C 	C 	0.1988	0.0603	0.3429	-0.159
Mof_H 	H 	0.1989	0.1076	0.3339	0.09
Mof_O 	O 	0.8562	0.0783	0.0597	-0.29
Mof_C 	C 	0.8499	0.2323	0.9477	0.113
Mof_H 	H 	0.892	0.2471	0.9107	0.037
Mof_C 	C 	0.8103	0.2724	0.9482	-0.072
Mof_H 	H 	0.825	0.3147	0.9113	0.079
Mof_C 	C 	0.7698	0.8391	0.301	0.021
Mof_H 	H 	0.7529	0.8632	0.262	-0.178
Mof_C 	C 	0.7262	0.8043	0.3703	0.03
Mof_H 	H 	0.6791	0.8044	0.3794	0.025
Mof_C 	C 	0.7502	0.7681	0.4257	0.099
Mof_C 	C 	0.8176	0.7665	0.4121	-0.265
Mof_H 	H 	0.8345	0.7424	0.4512	0.106
Mof_C 	C 	0.8615	0.8012	0.3429	0.153
Mof_H 	H 	0.9087	0.8011	0.3339	-0.03
Mof_O 	O 	0.2221	0.1438	0.0597	-0.273
Mof_C 	C 	0.3824	0.1501	0.9477	0.118
Mof_H 	H 	0.3551	0.108	0.9107	0.005
Mof_C 	C 	0.4621	0.1897	0.9482	-0.085
Mof_H 	H 	0.4897	0.175	0.9113	0.065
Mof_C 	C 	0.0693	0.2302	0.301	-0.081
Mof_H 	H 	0.1103	0.2471	0.262	-0.136
Mof_C 	C 	0.0781	0.2738	0.3703	0.456
Mof_H 	H 	0.1253	0.3209	0.3794	-0.133
Mof_C 	C 	0.0179	0.2498	0.4257	0.201
Mof_C 	C 	0.9489	0.1824	0.4121	0.63
Mof_H 	H 	0.9079	0.1655	0.4512	-0.121
Mof_C 	C 	0.9397	0.1385	0.3429	0.093
Mof_H 	H 	0.8924	0.0913	0.3339	0.055
Mof_O 	O 	0.0783	0.2221	0.0597	-0.293
Mof_C 	C 	0.2323	0.3824	0.9477	0.12
Mof_H 	H 	0.2471	0.3551	0.9107	0.018
Mof_C 	C 	0.2724	0.4621	0.9482	-0.082
Mof_H 	H 	0.3147	0.4897	0.9113	0.073
Mof_C 	C 	0.8391	0.0693	0.301	0.167
Mof_H 	H 	0.8632	0.1103	0.262	-0.406
Mof_C 	C 	0.8043	0.0781	0.3703	0.359
Mof_H 	H 	0.8044	0.1253	0.3794	-0.11
Mof_C 	C 	0.7681	0.0179	0.4257	0.364
Mof_C 	C 	0.7665	0.9489	0.4121	0.429
Mof_H 	H 	0.7424	0.9079	0.4512	-0.047
Mof_C 	C 	0.8012	0.9397	0.3429	0.277
Mof_H 	H 	0.8011	0.8924	0.3339	-0.061
Mof_O 	O 	0.1438	0.9217	0.0597	-0.23
Mof_C 	C 	0.1501	0.7677	0.9477	0.109
Mof_H 	H 	0.108	0.7529	0.9107	0.008
Mof_C 	C 	0.1897	0.7276	0.9482	-0.078
Mof_H 	H 	0.175	0.6853	0.9113	0.064
Mof_C 	C 	0.2302	0.1609	0.301	-0.315
Mof_H 	H 	0.2471	0.1368	0.262	0.294
Mof_C 	C 	0.2738	0.1957	0.3703	0.093
Mof_H 	H 	0.3209	0.1956	0.3794	0.017
Mof_C 	C 	0.2498	0.2319	0.4257	-0.089
Mof_C 	C 	0.1824	0.2335	0.4121	0.074
Mof_H 	H 	0.1655	0.2576	0.4512	-0.013
Mof_C 	C 	0.1385	0.1988	0.3429	-0.131
Mof_H 	H 	0.0913	0.1989	0.3339	0.154
Mof_O 	O 	0.7779	0.8562	0.0597	-0.272
Mof_C 	C 	0.6176	0.8499	0.9477	0.108
Mof_H 	H 	0.6449	0.892	0.9107	0.041
Mof_C 	C 	0.5379	0.8103	0.9482	-0.068
Mof_H 	H 	0.5103	0.825	0.9113	0.078
Mof_C 	C 	0.9307	0.7698	0.301	-0.234
Mof_H 	H 	0.8897	0.7529	0.262	0.32
Mof_C 	C 	0.9219	0.7262	0.3703	-0.299
Mof_H 	H 	0.8747	0.6791	0.3794	0.165
Mof_C 	C 	0.9821	0.7502	0.4257	-0.24
Mof_C 	C 	0.0511	0.8176	0.4121	-0.811
Mof_H 	H 	0.0921	0.8345	0.4512	0.21
Mof_C 	C 	0.0603	0.8615	0.3429	-0.057
Mof_H 	H 	0.1076	0.9087	0.3339	0.02
Mof_Zr	Zr	0.1026	-2.20429e-33	0.0853	3.876
Mof_O 	O 	0.0932	-1.10215e-33	0.0443	-3.053
Mof_Zr	Zr	-8.51044e-18	0.1026	0.0853	3.876
Mof_O 	O 	-4.41984e-18	0.0932	0.0443	-3.053
Mof_Zr	Zr	0.8974	0.8974	0.0853	3.873
Mof_O 	O 	0.9068	0.9068	0.0443	-2.951
Mof_Zr	Zr	0.8974	-2.20429e-33	0.0853	3.874
Mof_O 	O 	0.9068	-1.10215e-33	0.0443	-3.025
Mof_Zr	Zr	-8.51044e-18	0.8974	0.0853	3.874
Mof_O 	O 	7.49981e-17	0.9068	0.0443	-3.025
Mof_Zr	Zr	0.1026	0.1026	0.0853	3.877
Mof_O 	O 	0.0932	0.0932	0.0443	-3.012
Mof_Zr	Zr	-1.91508e-18	0.1026	0.9147	3.869
Mof_O 	O 	3.92157e-18	0.0932	0.9557	-3.004
Mof_Zr	Zr	0.1026	-1.76343e-32	0.9147	3.869
Mof_O 	O 	0.0932	-1.76343e-32	0.9557	-3.004
Mof_Zr	Zr	0.8974	0.8974	0.9147	3.866
Mof_O 	O 	0.9068	0.9068	0.9557	-2.9
Mof_Zr	Zr	-1.18423e-17	0.8974	0.9147	3.867
Mof_O 	O 	6.3485e-17	0.9068	0.9557	-2.977
Mof_Zr	Zr	0.8974	-1.76343e-32	0.9147	3.867
Mof_O 	O 	0.9068	-1.76343e-32	0.9557	-2.977
Mof_Zr	Zr	0.1026	0.1026	0.9147	3.87
Mof_O 	O 	0.0932	0.0932	0.9557	-2.962
Mof_O 	O 	-0	0	0.125	-0.69
Mof_O 	O 	-1.76343e-32	-1.76343e-32	0.875	-0.693
Mof_C 	C 	0.2533	0.12665	-0	0.672
Mof_C 	C 	0.3417	0.17085	-0	-0.318
Mof_C 	C 	0.5028	0.2514	-0	0.083
Mof_C 	C 	0.5864	0.2932	-0	-0.016
Mof_C 	C 	0.87335	0.12665	-0	0.648
Mof_C 	C 	0.82915	0.17085	-0	-0.297
Mof_C 	C 	0.7486	0.2514	-0	0.072
Mof_C 	C 	0.7068	0.2932	-0	-0.01
Mof_C 	C 	0.87335	0.7467	-0	0.637
Mof_C 	C 	0.82915	0.6583	-0	-0.285
Mof_C 	C 	0.7486	0.4972	-0	0.064
Mof_C 	C 	0.7068	0.4136	-0	-0.006
Mof_C 	C 	0.7467	0.87335	-0	0.637
Mof_C 	C 	0.6583	0.82915	-0	-0.285
Mof_C 	C 	0.4972	0.7486	-0	0.064
Mof_C 	C 	0.4136	0.7068	-0	-0.006
Mof_C 	C 	0.12665	0.87335	-0	0.648
Mof_C 	C 	0.17085	0.82915	-0	-0.297
Mof_C 	C 	0.2514	0.7486	-0	0.072
Mof_C 	C 	0.2932	0.7068	-0	-0.01
Mof_C 	C 	0.12665	0.2533	-0	0.672
Mof_C 	C 	0.17085	0.3417	-0	-0.318
Mof_C 	C 	0.2514	0.5028	-0	0.083
Mof_C 	C 	0.2932	0.5864	-0	-0.016
Mof_C 	C 	0.62675	0.2535	-0	-0.063
Mof_H 	H 	0.59915	0.1983	-0	0.032
Mof_C 	C 	0.7465	0.37325	-0	-0.069
Mof_H 	H 	0.8017	0.40085	-0	0.048
Mof_C 	C 	0.62675	0.37325	-0	-0.066
Mof_H 	H 	0.59915	0.40085	-0	0.039
Mof_C 	C 	0.37325	0.7465	-0	-0.069
Mof_H 	H 	0.40085	0.8017	-0	0.048
Mof_C 	C 	0.2535	0.62675	-0	-0.063
Mof_H 	H 	0.1983	0.59915	-0	0.032
Mof_C 	C 	0.37325	0.62675	-0	-0.066
Mof_H 	H 	0.40085	0.59915	-0	0.039
Mof_O 	O 	0.0726	0.9274	0.1835	-0.544
Mof_O 	O 	0.0726	0.1452	0.1835	-0.599
Mof_O 	O 	0.8548	0.9274	0.1835	-0.568
Mof_O 	O 	0.9274	0.0726	0.1835	-0.544
Mof_O 	O 	0.9274	0.8548	0.1835	-0.568
Mof_O 	O 	0.1452	0.0726	0.1835	-0.599
Mof_O 	O 	0.9274	0.0726	0.8165	-0.546
Mof_O 	O 	0.1452	0.0726	0.8165	-0.601
Mof_O 	O 	0.9274	0.8548	0.8165	-0.57
Mof_O 	O 	0.0726	0.9274	0.8165	-0.546
Mof_O 	O 	0.8548	0.9274	0.8165	-0.57
Mof_O 	O 	0.0726	0.1452	0.8165	-0.601
Mof_C 	C 	5.91745e-17	0.88123	0.2029	-0.145
Mof_C 	C 	-2.86841e-17	0.83743	0.2875	-0.034
Mof_C 	C 	0.11877	0.11877	0.2029	-0.169
Mof_C 	C 	0.16257	0.16257	0.2875	0.334
Mof_C 	C 	0.88123	0	0.2029	-0.145
Mof_C 	C 	0.83743	-8.81716e-33	0.2875	-0.034
Mof_C 	C 	9.53825e-18	0.11877	0.2029	-0.211
Mof_C 	C 	-8.82959e-18	0.16257	0.2875	0.139
Mof_C 	C 	0.88123	0.88123	0.2029	-0.031
Mof_C 	C 	0.83743	0.83743	0.2875	-0.005
Mof_C 	C 	0.11877	0	0.2029	-0.211
Mof_C 	C 	0.16257	-8.81716e-33	0.2875	0.139
Mof_C 	C 	0.88123	-1.76343e-32	0.7971	-0.145
Mof_C 	C 	0.83743	-8.81716e-33	0.7125	-0.034
Mof_C 	C 	0.11877	0.11877	0.7971	-0.169
Mof_C 	C 	0.16257	0.16257	0.7125	0.334
Mof_C 	C 	7.93086e-17	0.88123	0.7971	-0.145
Mof_C 	C 	8.33132e-18	0.83743	0.7125	-0.034
Mof_C 	C 	0.11877	-1.76343e-32	0.7971	-0.211
Mof_C 	C 	0.16257	-8.81716e-33	0.7125	0.139
Mof_C 	C 	0.88123	0.88123	0.7971	-0.031
Mof_C 	C 	0.83743	0.83743	0.7125	-0.004
Mof_C 	C 	9.81796e-18	0.11877	0.7971	-0.211
Mof_C 	C 	-1.59593e-18	0.16257	0.7125	0.139
Mof_S 	S 	0.0264	0.7152	0.5	1.184
Mof_O 	O 	0.104	0.715	0.5	-0.187
Mof_O 	O 	0.962	0.629	0.5	0.32
Mof_S 	S 	0.2848	0.3112	0.5	0.205
Mof_O 	O 	0.285	0.389	0.5	-0.104
Mof_O 	O 	0.371	0.333	0.5	-0.144
Mof_S 	S 	0.6888	0.9736	0.5	-0.983
Mof_O 	O 	0.611	0.896	0.5	-0.023
Mof_O 	O 	0.667	0.038	0.5	-0.525
Mof_S 	S 	0.9736	0.2848	0.5	-0.792
Mof_O 	O 	0.896	0.285	0.5	-0.035
Mof_O 	O 	0.038	0.371	0.5	-0.511
Mof_S 	S 	0.7152	0.6888	0.5	0.075
Mof_O 	O 	0.715	0.611	0.5	-0.104
Mof_O 	O 	0.629	0.667	0.5	-0.092
Mof_S 	S 	0.3112	0.0264	0.5	1.126
Mof_O 	O 	0.389	0.104	0.5	-0.175
Mof_O 	O 	0.333	0.962	0.5	0.253
Mof_S 	S 	0.7152	0.0264	0.5	1.184
Mof_O 	O 	0.715	0.104	0.5	-0.187
Mof_O 	O 	0.629	0.962	0.5	0.32
Mof_S 	S 	0.3112	0.2848	0.5	0.205
Mof_O 	O 	0.389	0.285	0.5	-0.104
Mof_O 	O 	0.333	0.371	0.5	-0.144
Mof_S 	S 	0.9736	0.6888	0.5	-0.983
Mof_O 	O 	0.896	0.611	0.5	-0.023
Mof_O 	O 	0.038	0.667	0.5	-0.525
Mof_S 	S 	0.2848	0.9736	0.5	-0.792
Mof_O 	O 	0.285	0.896	0.5	-0.035
Mof_O 	O 	0.371	0.038	0.5	-0.511
Mof_S 	S 	0.6888	0.7152	0.5	0.075
Mof_O 	O 	0.611	0.715	0.5	-0.104
Mof_O 	O 	0.667	0.629	0.5	-0.092
Mof_S 	S 	0.0264	0.3112	0.5	1.126
Mof_O 	O 	0.104	0.389	0.5	-0.175
Mof_O 	O 	0.962	0.333	0.5	0.253
_end
