data_functionalizedCrystal
_audit_creation_method	'EQeq! by Chris Wilmer'
_symmetry_space_group_name_H-M	'P1'
_symmetry_Int_Tables_number	1
_symmetry_cell_setting	triclinic
loop_
_symmetry_equiv_pos_as_xyz
  x,y,z
_cell_length_a	7.6775
_cell_length_b	11.3959
_cell_length_c	11.3959
_cell_angle_alpha	90
_cell_angle_beta	90
_cell_angle_gamma	90
loop_
_atom_site_label
_atom_site_type_symbol
_atom_site_fract_x
_atom_site_fract_y
_atom_site_fract_z
_atom_site_charge
Mof_Zn	Zn	-0	0	-0	1.196
Mof_Si	Si	0.5	0	-0	2.256
Mof_H 	H 	0.742	0	0.795	0.092
Mof_H 	H 	0.737	6.32956e-33	0.585	0.065
Mof_H 	H 	0.742	0	0.205	0.047
Mof_H 	H 	0.737	0	0.415	0.061
Mof_H 	H 	0.742	0.205	-0	0.047
Mof_H 	H 	0.737	0.415	-0	0.061
Mof_H 	H 	0.742	0.795	-0	0.091
Mof_H 	H 	0.737	0.585	-0	0.064
Mof_H 	H 	0.258	0	0.795	0.095
Mof_H 	H 	0.263	6.32956e-33	0.585	0.067
Mof_H 	H 	0.258	0	0.205	0.051
Mof_H 	H 	0.263	0	0.415	0.064
Mof_H 	H 	0.258	0.795	-0	0.095
Mof_H 	H 	0.263	0.585	-0	0.067
Mof_H 	H 	0.258	0.205	-0	0.051
Mof_H 	H 	0.263	0.415	-0	0.064
Mof_C 	C 	3.15443e-33	-6.32956e-33	0.5668	0.021
Mof_C 	C 	8.74046e-33	-3.16478e-33	0.4332	0.02
Mof_C 	C 	6.32956e-33	0.4332	-0	0.02
Mof_C 	C 	-0	0.5668	-0	0.021
Mof_C 	C 	0.8588	-6.32956e-33	0.7501	0.109
Mof_C 	C 	0.8555	-6.32956e-33	0.6285	-0.052
Mof_C 	C 	0.8588	0	0.2499	0.088
Mof_C 	C 	0.8555	0	0.3715	-0.062
Mof_C 	C 	0.8588	0.2499	-0	0.088
Mof_C 	C 	0.8555	0.3715	-0	-0.062
Mof_C 	C 	0.8588	0.7501	-0	0.109
Mof_C 	C 	0.8555	0.6285	-0	-0.052
Mof_C 	C 	0.1412	-6.32956e-33	0.7501	0.082
Mof_C 	C 	0.1445	-6.32956e-33	0.6285	-0.08
Mof_C 	C 	0.1412	0	0.2499	0.057
Mof_C 	C 	0.1445	0	0.3715	-0.09
Mof_C 	C 	0.1412	0.7501	-0	0.082
Mof_C 	C 	0.1445	0.6285	-0	-0.08
Mof_C 	C 	0.1412	0.2499	-0	0.057
Mof_C 	C 	0.1445	0.3715	-0	-0.09
Mof_N 	N 	4.51181e-33	-6.32956e-33	0.8107	-0.188
Mof_N 	N 	4.21829e-33	0	0.1893	-0.254
Mof_N 	N 	3.16478e-33	0.1893	-0	-0.254
Mof_N 	N 	-0	0.8107	-0	-0.188
Mof_F 	F 	0.7288	0	-0	-0.858
Mof_F 	F 	0.2712	0	-0	-0.868
Mof_F 	F 	0.5	0.897	0.897	-0.385
Mof_F 	F 	0.5	0.103	0.103	-0.675
Mof_F 	F 	0.5	0.103	0.897	-0.525
Mof_F 	F 	0.5	0.897	0.103	-0.525
_end
