data_functionalizedCrystal
_audit_creation_method	'EQeq! by Chris Wilmer'
_symmetry_space_group_name_H-M	'P1'
_symmetry_Int_Tables_number	1
_symmetry_cell_setting	triclinic
loop_
_symmetry_equiv_pos_as_xyz
  x,y,z
_cell_length_a	33.1915
_cell_length_b	33.1915
_cell_length_c	13.3206
_cell_angle_alpha	90
_cell_angle_beta	90
_cell_angle_gamma	120
loop_
_atom_site_label
_atom_site_type_symbol
_atom_site_fract_x
_atom_site_fract_y
_atom_site_fract_z
_atom_site_charge
Mof_Zn	Zn	0.29912	0.00859	0.90947	1.237
Mof_Zn	Zn	0.4435	0.00477	0.02748	1.233
Mof_Zn	Zn	0.16482	0.83599	0.66855	1.238
Mof_P 	P 	0.3384	0.96454	0.0624	0.422
Mof_P 	P 	0.22916	0.90707	0.84351	0.452
Mof_P 	P 	0.48074	0.06899	0.21944	0.462
Mof_P 	P 	0.52155	0.05698	0.8676	0.471
Mof_O 	O 	0.30722	0.98357	0.03397	-0.436
Mof_O 	O 	0.37775	0.97866	0.98953	-0.434
Mof_O 	O 	0.35537	0.97623	0.17061	-0.451
Mof_O 	O 	0.25026	0.95923	0.83309	-0.429
Mof_O 	O 	0.19108	0.88413	0.76747	-0.456
Mof_O 	O 	0.21334	0.89121	0.95007	-0.445
Mof_O 	O 	0.46698	0.0593	0.10986	-0.474
Mof_O 	O 	0.51088	0.04947	0.25457	-0.446
Mof_O 	O 	0.43943	0.0551	0.2879	-0.452
Mof_O 	O 	0.47146	0.02592	0.89545	-0.458
Mof_O 	O 	0.5294	0.05716	0.75663	-0.428
Mof_O 	O 	0.55447	0.04874	0.9284	-0.474
Mof_H 	H 	0.3099	0.9107	0.0594	-0.377
Mof_H 	H 	0.2652	0.8922	0.8199	-0.384
Mof_H 	H 	0.5043	0.1109	0.2274	-0.034
Mof_H 	H 	0.5313	0.0993	0.8812	-0.023
Mof_O 	O 	0.3095	0.9127	0.0601	0.36
Mof_O 	O 	0.2663	0.8932	0.8197	0.333
Mof_Zn	Zn	0.96578	0.34192	0.2428	1.236
Mof_Zn	Zn	0.11017	0.3381	0.36081	1.232
Mof_Zn	Zn	0.83149	0.16932	0.00188	1.237
Mof_P 	P 	0.00507	0.29787	0.39573	0.42
Mof_P 	P 	0.89583	0.2404	0.17684	0.451
Mof_P 	P 	0.14741	0.40232	0.55277	0.461
Mof_P 	P 	0.18822	0.39031	0.20093	0.47
Mof_O 	O 	0.97389	0.3169	0.3673	-0.438
Mof_O 	O 	0.04442	0.31199	0.32286	-0.433
Mof_O 	O 	0.02204	0.30956	0.50394	-0.451
Mof_O 	O 	0.91693	0.29256	0.16642	-0.429
Mof_O 	O 	0.85775	0.21746	0.1008	-0.456
Mof_O 	O 	0.88001	0.22454	0.2834	-0.444
Mof_O 	O 	0.13365	0.39263	0.44319	-0.474
Mof_O 	O 	0.17755	0.3828	0.5879	-0.446
Mof_O 	O 	0.1061	0.38843	0.62123	-0.452
Mof_O 	O 	0.13813	0.35925	0.22878	-0.459
Mof_O 	O 	0.19607	0.39049	0.08996	-0.428
Mof_O 	O 	0.22114	0.38207	0.26173	-0.475
Mof_H 	H 	0.97657	0.24403	0.39273	-0.377
Mof_H 	H 	0.93187	0.22553	0.15323	-0.384
Mof_H 	H 	0.17097	0.44423	0.56073	-0.034
Mof_H 	H 	0.19797	0.43263	0.21453	-0.023
Mof_O 	O 	0.97617	0.24603	0.39343	0.36
Mof_O 	O 	0.93297	0.22653	0.15303	0.333
Mof_Zn	Zn	0.63245	0.67525	0.57614	1.236
Mof_Zn	Zn	0.77684	0.67143	0.69415	1.232
Mof_Zn	Zn	0.49816	0.50265	0.33522	1.237
Mof_P 	P 	0.67173	0.63121	0.72907	0.42
Mof_P 	P 	0.56249	0.57374	0.51018	0.451
Mof_P 	P 	0.81407	0.73566	0.88611	0.461
Mof_P 	P 	0.85488	0.72365	0.53427	0.47
Mof_O 	O 	0.64055	0.65024	0.70064	-0.438
Mof_O 	O 	0.71108	0.64533	0.6562	-0.433
Mof_O 	O 	0.6887	0.6429	0.83728	-0.451
Mof_O 	O 	0.58359	0.6259	0.49976	-0.429
Mof_O 	O 	0.52441	0.5508	0.43414	-0.455
Mof_O 	O 	0.54667	0.55788	0.61674	-0.444
Mof_O 	O 	0.80031	0.72597	0.77653	-0.474
Mof_O 	O 	0.84421	0.71614	0.92124	-0.445
Mof_O 	O 	0.77276	0.72177	0.95457	-0.452
Mof_O 	O 	0.80479	0.69259	0.56212	-0.459
Mof_O 	O 	0.86273	0.72383	0.4233	-0.428
Mof_O 	O 	0.8878	0.71541	0.59507	-0.475
Mof_H 	H 	0.64323	0.57737	0.72607	-0.377
Mof_H 	H 	0.59853	0.55887	0.48657	-0.384
Mof_H 	H 	0.83763	0.77757	0.89407	-0.034
Mof_H 	H 	0.86463	0.76597	0.54787	-0.023
Mof_O 	O 	0.64283	0.57937	0.72677	0.36
Mof_O 	O 	0.59963	0.55987	0.48637	0.333
Mof_Zn	Zn	0.99141	0.29053	0.90947	1.236
Mof_Zn	Zn	0.99523	0.43874	0.02748	1.232
Mof_Zn	Zn	0.16401	0.32884	0.66855	1.237
Mof_P 	P 	0.03546	0.37386	0.0624	0.421
Mof_P 	P 	0.09293	0.32209	0.84351	0.451
Mof_P 	P 	0.93101	0.41175	0.21944	0.461
Mof_P 	P 	0.94302	0.46457	0.8676	0.47
Mof_O 	O 	0.01643	0.32365	0.03397	-0.437
Mof_O 	O 	0.02134	0.39909	0.98953	-0.433
Mof_O 	O 	0.02377	0.37914	0.17061	-0.451
Mof_O 	O 	0.04077	0.29103	0.83309	-0.429
Mof_O 	O 	0.11587	0.30695	0.76747	-0.455
Mof_O 	O 	0.10879	0.32213	0.95007	-0.444
Mof_O 	O 	0.9407	0.40768	0.10986	-0.474
Mof_O 	O 	0.95053	0.46141	0.25457	-0.446
Mof_O 	O 	0.9449	0.38433	0.2879	-0.452
Mof_O 	O 	0.97408	0.44554	0.89545	-0.458
Mof_O 	O 	0.94284	0.47224	0.75663	-0.428
Mof_O 	O 	0.95126	0.50573	0.9284	-0.474
Mof_H 	H 	0.0893	0.3992	0.0594	-0.377
Mof_H 	H 	0.1078	0.373	0.8199	-0.384
Mof_H 	H 	0.8891	0.3934	0.2274	-0.034
Mof_H 	H 	0.9007	0.432	0.8812	-0.023
Mof_O 	O 	0.0873	0.3968	0.0601	0.36
Mof_O 	O 	0.1068	0.3731	0.8197	0.333
Mof_Zn	Zn	0.65808	0.62386	0.2428	1.236
Mof_Zn	Zn	0.6619	0.77207	0.36081	1.232
Mof_Zn	Zn	0.83068	0.66217	0.00188	1.237
Mof_P 	P 	0.70213	0.70719	0.39573	0.42
Mof_P 	P 	0.7596	0.65542	0.17684	0.451
Mof_P 	P 	0.59768	0.74508	0.55277	0.461
Mof_P 	P 	0.60969	0.7979	0.20093	0.47
Mof_O 	O 	0.6831	0.65698	0.3673	-0.438
Mof_O 	O 	0.68801	0.73242	0.32286	-0.433
Mof_O 	O 	0.69044	0.71247	0.50394	-0.451
Mof_O 	O 	0.70744	0.62436	0.16642	-0.429
Mof_O 	O 	0.78254	0.64028	0.1008	-0.456
Mof_O 	O 	0.77546	0.65546	0.2834	-0.444
Mof_O 	O 	0.60737	0.74101	0.44319	-0.474
Mof_O 	O 	0.6172	0.79474	0.5879	-0.446
Mof_O 	O 	0.61157	0.71766	0.62123	-0.452
Mof_O 	O 	0.64075	0.77887	0.22878	-0.459
Mof_O 	O 	0.60951	0.80557	0.08996	-0.428
Mof_O 	O 	0.61793	0.83906	0.26173	-0.475
Mof_H 	H 	0.75597	0.73253	0.39273	-0.377
Mof_H 	H 	0.77447	0.70633	0.15323	-0.384
Mof_H 	H 	0.55577	0.72673	0.56073	-0.034
Mof_H 	H 	0.56737	0.76533	0.21453	-0.023
Mof_O 	O 	0.75397	0.73013	0.39343	0.36
Mof_O 	O 	0.77347	0.70643	0.15303	0.333
Mof_Zn	Zn	0.32475	0.9572	0.57614	1.236
Mof_Zn	Zn	0.32857	0.1054	0.69415	1.232
Mof_Zn	Zn	0.49735	0.99551	0.33522	1.238
Mof_P 	P 	0.36879	0.04053	0.72907	0.42
Mof_P 	P 	0.42626	0.98876	0.51018	0.451
Mof_P 	P 	0.26434	0.07842	0.88611	0.461
Mof_P 	P 	0.27635	0.13124	0.53427	0.47
Mof_O 	O 	0.34976	0.99032	0.70064	-0.438
Mof_O 	O 	0.35467	0.06576	0.6562	-0.433
Mof_O 	O 	0.3571	0.04581	0.83728	-0.451
Mof_O 	O 	0.3741	0.9577	0.49976	-0.429
Mof_O 	O 	0.4492	0.97362	0.43414	-0.455
Mof_O 	O 	0.44212	0.9888	0.61674	-0.444
Mof_O 	O 	0.27403	0.07435	0.77653	-0.474
Mof_O 	O 	0.28386	0.12808	0.92124	-0.445
Mof_O 	O 	0.27823	0.051	0.95457	-0.452
Mof_O 	O 	0.30741	0.11221	0.56212	-0.459
Mof_O 	O 	0.27617	0.13891	0.4233	-0.428
Mof_O 	O 	0.28459	0.1724	0.59507	-0.475
Mof_H 	H 	0.42263	0.06587	0.72607	-0.377
Mof_H 	H 	0.44113	0.03967	0.48657	-0.384
Mof_H 	H 	0.22243	0.06007	0.89407	-0.034
Mof_H 	H 	0.23403	0.09867	0.54787	-0.023
Mof_O 	O 	0.42063	0.06347	0.72677	0.36
Mof_O 	O 	0.44013	0.03977	0.48637	0.333
Mof_Zn	Zn	0.70947	0.70088	0.90947	1.236
Mof_Zn	Zn	0.56126	0.5565	0.02748	1.232
Mof_Zn	Zn	0.67116	0.83518	0.66855	1.237
Mof_P 	P 	0.62614	0.6616	0.0624	0.42
Mof_P 	P 	0.67791	0.77084	0.84351	0.451
Mof_P 	P 	0.58825	0.51926	0.21944	0.461
Mof_P 	P 	0.53543	0.47845	0.8676	0.47
Mof_O 	O 	0.67635	0.69278	0.03397	-0.437
Mof_O 	O 	0.60091	0.62225	0.98953	-0.433
Mof_O 	O 	0.62086	0.64463	0.17061	-0.451
Mof_O 	O 	0.70897	0.74974	0.83309	-0.429
Mof_O 	O 	0.69305	0.80892	0.76747	-0.455
Mof_O 	O 	0.67787	0.78666	0.95007	-0.444
Mof_O 	O 	0.59232	0.53302	0.10986	-0.474
Mof_O 	O 	0.53859	0.48912	0.25457	-0.446
Mof_O 	O 	0.61567	0.56057	0.2879	-0.452
Mof_O 	O 	0.55446	0.52854	0.89545	-0.459
Mof_O 	O 	0.52776	0.4706	0.75663	-0.428
Mof_O 	O 	0.49427	0.44553	0.9284	-0.475
Mof_H 	H 	0.6008	0.6901	0.0594	-0.377
Mof_H 	H 	0.627	0.7348	0.8199	-0.384
Mof_H 	H 	0.6066	0.4957	0.2274	-0.034
Mof_H 	H 	0.568	0.4687	0.8812	-0.023
Mof_O 	O 	0.6032	0.6905	0.0601	0.36
Mof_O 	O 	0.6269	0.7337	0.8197	0.333
Mof_Zn	Zn	0.37614	0.03422	0.2428	1.236
Mof_Zn	Zn	0.22793	0.88983	0.36081	1.232
Mof_Zn	Zn	0.33783	0.16851	0.00188	1.237
Mof_P 	P 	0.29281	0.99493	0.39573	0.421
Mof_P 	P 	0.34458	0.10417	0.17684	0.451
Mof_P 	P 	0.25492	0.85259	0.55277	0.461
Mof_P 	P 	0.2021	0.81178	0.20093	0.47
Mof_O 	O 	0.34302	0.02611	0.3673	-0.438
Mof_O 	O 	0.26758	0.95558	0.32286	-0.433
Mof_O 	O 	0.28753	0.97796	0.50394	-0.451
Mof_O 	O 	0.37564	0.08307	0.16642	-0.429
Mof_O 	O 	0.35972	0.14225	0.1008	-0.456
Mof_O 	O 	0.34454	0.11999	0.2834	-0.444
Mof_O 	O 	0.25899	0.86635	0.44319	-0.474
Mof_O 	O 	0.20526	0.82245	0.5879	-0.445
Mof_O 	O 	0.28234	0.8939	0.62123	-0.452
Mof_O 	O 	0.22113	0.86187	0.22878	-0.459
Mof_O 	O 	0.19443	0.80393	0.08996	-0.427
Mof_O 	O 	0.16094	0.77886	0.26173	-0.474
Mof_H 	H 	0.26747	0.02343	0.39273	-0.377
Mof_H 	H 	0.29367	0.06813	0.15323	-0.384
Mof_H 	H 	0.27327	0.82903	0.56073	-0.034
Mof_H 	H 	0.23467	0.80203	0.21453	-0.023
Mof_O 	O 	0.26987	0.02383	0.39343	0.36
Mof_O 	O 	0.29357	0.06703	0.15303	0.333
Mof_Zn	Zn	0.0428	0.36755	0.57614	1.236
Mof_Zn	Zn	0.8946	0.22316	0.69415	1.232
Mof_Zn	Zn	0.00449	0.50184	0.33522	1.238
Mof_P 	P 	0.95947	0.32827	0.72907	0.42
Mof_P 	P 	0.01124	0.43751	0.51018	0.451
Mof_P 	P 	0.92158	0.18593	0.88611	0.461
Mof_P 	P 	0.86876	0.14512	0.53427	0.47
Mof_O 	O 	0.00968	0.35945	0.70064	-0.438
Mof_O 	O 	0.93424	0.28892	0.6562	-0.433
Mof_O 	O 	0.95419	0.3113	0.83728	-0.451
Mof_O 	O 	0.0423	0.41641	0.49976	-0.429
Mof_O 	O 	0.02638	0.47559	0.43414	-0.455
Mof_O 	O 	0.0112	0.45333	0.61674	-0.444
Mof_O 	O 	0.92565	0.19969	0.77653	-0.474
Mof_O 	O 	0.87192	0.15579	0.92124	-0.445
Mof_O 	O 	0.949	0.22724	0.95457	-0.451
Mof_O 	O 	0.88779	0.19521	0.56212	-0.459
Mof_O 	O 	0.86109	0.13727	0.4233	-0.428
Mof_O 	O 	0.8276	0.1122	0.59507	-0.475
Mof_H 	H 	0.93413	0.35677	0.72607	-0.377
Mof_H 	H 	0.96033	0.40147	0.48657	-0.384
Mof_H 	H 	0.93993	0.16237	0.89407	-0.033
Mof_H 	H 	0.90133	0.13537	0.54787	-0.023
Mof_O 	O 	0.93653	0.35717	0.72677	0.36
Mof_O 	O 	0.96023	0.40037	0.48637	0.333
Mof_Zn	Zn	0.70088	0.99141	0.09053	1.236
Mof_Zn	Zn	0.5565	0.99523	0.97252	1.232
Mof_Zn	Zn	0.83518	0.16401	0.33145	1.237
Mof_P 	P 	0.6616	0.03546	0.9376	0.421
Mof_P 	P 	0.77084	0.09293	0.15649	0.451
Mof_P 	P 	0.51926	0.93101	0.78056	0.461
Mof_P 	P 	0.47845	0.94302	0.1324	0.47
Mof_O 	O 	0.69278	0.01643	0.96603	-0.437
Mof_O 	O 	0.62225	0.02134	0.01047	-0.434
Mof_O 	O 	0.64463	0.02377	0.82939	-0.451
Mof_O 	O 	0.74974	0.04077	0.16691	-0.429
Mof_O 	O 	0.80892	0.11587	0.23253	-0.456
Mof_O 	O 	0.78666	0.10879	0.04993	-0.445
Mof_O 	O 	0.53302	0.9407	0.89014	-0.474
Mof_O 	O 	0.48912	0.95053	0.74543	-0.446
Mof_O 	O 	0.56057	0.9449	0.7121	-0.452
Mof_O 	O 	0.52854	0.97408	0.10455	-0.458
Mof_O 	O 	0.4706	0.94284	0.24337	-0.428
Mof_O 	O 	0.44553	0.95126	0.0716	-0.474
Mof_H 	H 	0.6901	0.0893	0.9406	-0.377
Mof_H 	H 	0.7348	0.1078	0.1801	-0.384
Mof_H 	H 	0.4957	0.8891	0.7726	-0.034
Mof_H 	H 	0.4687	0.9007	0.1188	-0.023
Mof_O 	O 	0.6905	0.0873	0.9399	0.36
Mof_O 	O 	0.7337	0.1068	0.1803	0.333
Mof_Zn	Zn	0.36755	0.32475	0.42386	1.236
Mof_Zn	Zn	0.22316	0.32857	0.30585	1.232
Mof_Zn	Zn	0.50184	0.49735	0.66478	1.237
Mof_P 	P 	0.32827	0.36879	0.27093	0.42
Mof_P 	P 	0.43751	0.42626	0.48982	0.451
Mof_P 	P 	0.18593	0.26434	0.11389	0.461
Mof_P 	P 	0.14512	0.27635	0.46573	0.47
Mof_O 	O 	0.35945	0.34976	0.29936	-0.438
Mof_O 	O 	0.28892	0.35467	0.3438	-0.433
Mof_O 	O 	0.3113	0.3571	0.16272	-0.451
Mof_O 	O 	0.41641	0.3741	0.50024	-0.429
Mof_O 	O 	0.47559	0.4492	0.56586	-0.455
Mof_O 	O 	0.45333	0.44212	0.38326	-0.444
Mof_O 	O 	0.19969	0.27403	0.22347	-0.474
Mof_O 	O 	0.15579	0.28386	0.07876	-0.445
Mof_O 	O 	0.22724	0.27823	0.04543	-0.452
Mof_O 	O 	0.19521	0.30741	0.43788	-0.459
Mof_O 	O 	0.13727	0.27617	0.5767	-0.428
Mof_O 	O 	0.1122	0.28459	0.40493	-0.475
Mof_H 	H 	0.35677	0.42263	0.27393	-0.377
Mof_H 	H 	0.40147	0.44113	0.51343	-0.384
Mof_H 	H 	0.16237	0.22243	0.10593	-0.034
Mof_H 	H 	0.13537	0.23403	0.45213	-0.023
Mof_O 	O 	0.35717	0.42063	0.27323	0.36
Mof_O 	O 	0.40037	0.44013	0.51363	0.333
Mof_Zn	Zn	0.03422	0.65808	0.7572	1.236
Mof_Zn	Zn	0.88983	0.6619	0.63919	1.232
Mof_Zn	Zn	0.16851	0.83068	0.99812	1.237
Mof_P 	P 	0.99493	0.70213	0.60427	0.42
Mof_P 	P 	0.10417	0.7596	0.82316	0.451
Mof_P 	P 	0.85259	0.59768	0.44723	0.461
Mof_P 	P 	0.81178	0.60969	0.79907	0.47
Mof_O 	O 	0.02611	0.6831	0.6327	-0.438
Mof_O 	O 	0.95558	0.68801	0.67714	-0.433
Mof_O 	O 	0.97796	0.69044	0.49606	-0.451
Mof_O 	O 	0.08307	0.70744	0.83358	-0.429
Mof_O 	O 	0.14225	0.78254	0.8992	-0.456
Mof_O 	O 	0.11999	0.77546	0.7166	-0.444
Mof_O 	O 	0.86635	0.60737	0.55681	-0.474
Mof_O 	O 	0.82245	0.6172	0.4121	-0.446
Mof_O 	O 	0.8939	0.61157	0.37877	-0.452
Mof_O 	O 	0.86187	0.64075	0.77122	-0.459
Mof_O 	O 	0.80393	0.60951	0.91004	-0.428
Mof_O 	O 	0.77886	0.61793	0.73827	-0.475
Mof_H 	H 	0.02343	0.75597	0.60727	-0.377
Mof_H 	H 	0.06813	0.77447	0.84677	-0.384
Mof_H 	H 	0.82903	0.55577	0.43927	-0.034
Mof_H 	H 	0.80203	0.56737	0.78547	-0.023
Mof_O 	O 	0.02383	0.75397	0.60657	0.36
Mof_O 	O 	0.06703	0.77347	0.84697	0.333
Mof_Zn	Zn	0.00859	0.70947	0.09053	1.236
Mof_Zn	Zn	0.00477	0.56126	0.97252	1.232
Mof_Zn	Zn	0.83599	0.67116	0.33145	1.237
Mof_P 	P 	0.96454	0.62614	0.9376	0.421
Mof_P 	P 	0.90707	0.67791	0.15649	0.451
Mof_P 	P 	0.06899	0.58825	0.78056	0.461
Mof_P 	P 	0.05698	0.53543	0.1324	0.47
Mof_O 	O 	0.98357	0.67635	0.96603	-0.437
Mof_O 	O 	0.97866	0.60091	0.01047	-0.433
Mof_O 	O 	0.97623	0.62086	0.82939	-0.451
Mof_O 	O 	0.95923	0.70897	0.16691	-0.429
Mof_O 	O 	0.88413	0.69305	0.23253	-0.455
Mof_O 	O 	0.89121	0.67787	0.04993	-0.444
Mof_O 	O 	0.0593	0.59232	0.89014	-0.474
Mof_O 	O 	0.04947	0.53859	0.74543	-0.446
Mof_O 	O 	0.0551	0.61567	0.7121	-0.452
Mof_O 	O 	0.02592	0.55446	0.10455	-0.458
Mof_O 	O 	0.05716	0.52776	0.24337	-0.428
Mof_O 	O 	0.04874	0.49427	0.0716	-0.474
Mof_H 	H 	0.9107	0.6008	0.9406	-0.377
Mof_H 	H 	0.8922	0.627	0.1801	-0.384
Mof_H 	H 	0.1109	0.6066	0.7726	-0.034
Mof_H 	H 	0.0993	0.568	0.1188	-0.023
Mof_O 	O 	0.9127	0.6032	0.9399	0.36
Mof_O 	O 	0.8932	0.6269	0.1803	0.333
Mof_Zn	Zn	0.67525	0.0428	0.42386	1.236
Mof_Zn	Zn	0.67143	0.8946	0.30585	1.232
Mof_Zn	Zn	0.50265	0.00449	0.66478	1.238
Mof_P 	P 	0.63121	0.95947	0.27093	0.42
Mof_P 	P 	0.57374	0.01124	0.48982	0.451
Mof_P 	P 	0.73566	0.92158	0.11389	0.461
Mof_P 	P 	0.72365	0.86876	0.46573	0.47
Mof_O 	O 	0.65024	0.00968	0.29936	-0.438
Mof_O 	O 	0.64533	0.93424	0.3438	-0.433
Mof_O 	O 	0.6429	0.95419	0.16272	-0.451
Mof_O 	O 	0.6259	0.0423	0.50024	-0.429
Mof_O 	O 	0.5508	0.02638	0.56586	-0.455
Mof_O 	O 	0.55788	0.0112	0.38326	-0.444
Mof_O 	O 	0.72597	0.92565	0.22347	-0.474
Mof_O 	O 	0.71614	0.87192	0.07876	-0.445
Mof_O 	O 	0.72177	0.949	0.04543	-0.452
Mof_O 	O 	0.69259	0.88779	0.43788	-0.459
Mof_O 	O 	0.72383	0.86109	0.5767	-0.428
Mof_O 	O 	0.71541	0.8276	0.40493	-0.475
Mof_H 	H 	0.57737	0.93413	0.27393	-0.377
Mof_H 	H 	0.55887	0.96033	0.51343	-0.384
Mof_H 	H 	0.77757	0.93993	0.10593	-0.034
Mof_H 	H 	0.76597	0.90133	0.45213	-0.023
Mof_O 	O 	0.57937	0.93653	0.27323	0.36
Mof_O 	O 	0.55987	0.96023	0.51363	0.333
Mof_Zn	Zn	0.34192	0.37614	0.7572	1.236
Mof_Zn	Zn	0.3381	0.22793	0.63919	1.232
Mof_Zn	Zn	0.16932	0.33783	0.99812	1.237
Mof_P 	P 	0.29787	0.29281	0.60427	0.42
Mof_P 	P 	0.2404	0.34458	0.82316	0.451
Mof_P 	P 	0.40232	0.25492	0.44723	0.461
Mof_P 	P 	0.39031	0.2021	0.79907	0.47
Mof_O 	O 	0.3169	0.34302	0.6327	-0.438
Mof_O 	O 	0.31199	0.26758	0.67714	-0.433
Mof_O 	O 	0.30956	0.28753	0.49606	-0.451
Mof_O 	O 	0.29256	0.37564	0.83358	-0.429
Mof_O 	O 	0.21746	0.35972	0.8992	-0.456
Mof_O 	O 	0.22454	0.34454	0.7166	-0.444
Mof_O 	O 	0.39263	0.25899	0.55681	-0.474
Mof_O 	O 	0.3828	0.20526	0.4121	-0.446
Mof_O 	O 	0.38843	0.28234	0.37877	-0.452
Mof_O 	O 	0.35925	0.22113	0.77122	-0.459
Mof_O 	O 	0.39049	0.19443	0.91004	-0.428
Mof_O 	O 	0.38207	0.16094	0.73827	-0.475
Mof_H 	H 	0.24403	0.26747	0.60727	-0.377
Mof_H 	H 	0.22553	0.29367	0.84677	-0.384
Mof_H 	H 	0.44423	0.27327	0.43927	-0.034
Mof_H 	H 	0.43263	0.23467	0.78547	-0.023
Mof_O 	O 	0.24603	0.26987	0.60657	0.36
Mof_O 	O 	0.22653	0.29357	0.84697	0.333
Mof_Zn	Zn	0.29053	0.29912	0.09053	1.236
Mof_Zn	Zn	0.43874	0.4435	0.97252	1.232
Mof_Zn	Zn	0.32884	0.16482	0.33145	1.237
Mof_P 	P 	0.37386	0.3384	0.9376	0.42
Mof_P 	P 	0.32209	0.22916	0.15649	0.451
Mof_P 	P 	0.41175	0.48074	0.78056	0.461
Mof_P 	P 	0.46457	0.52155	0.1324	0.47
Mof_O 	O 	0.32365	0.30722	0.96603	-0.437
Mof_O 	O 	0.39909	0.37775	0.01047	-0.433
Mof_O 	O 	0.37914	0.35537	0.82939	-0.451
Mof_O 	O 	0.29103	0.25026	0.16691	-0.429
Mof_O 	O 	0.30695	0.19108	0.23253	-0.455
Mof_O 	O 	0.32213	0.21334	0.04993	-0.444
Mof_O 	O 	0.40768	0.46698	0.89014	-0.474
Mof_O 	O 	0.46141	0.51088	0.74543	-0.446
Mof_O 	O 	0.38433	0.43943	0.7121	-0.452
Mof_O 	O 	0.44554	0.47146	0.10455	-0.459
Mof_O 	O 	0.47224	0.5294	0.24337	-0.428
Mof_O 	O 	0.50573	0.55447	0.0716	-0.475
Mof_H 	H 	0.3992	0.3099	0.9406	-0.377
Mof_H 	H 	0.373	0.2652	0.1801	-0.384
Mof_H 	H 	0.3934	0.5043	0.7726	-0.034
Mof_H 	H 	0.432	0.5313	0.1188	-0.023
Mof_O 	O 	0.3968	0.3095	0.9399	0.36
Mof_O 	O 	0.3731	0.2663	0.1803	0.333
Mof_Zn	Zn	0.9572	0.63245	0.42386	1.236
Mof_Zn	Zn	0.1054	0.77684	0.30585	1.232
Mof_Zn	Zn	0.99551	0.49816	0.66478	1.238
Mof_P 	P 	0.04053	0.67173	0.27093	0.42
Mof_P 	P 	0.98876	0.56249	0.48982	0.451
Mof_P 	P 	0.07842	0.81407	0.11389	0.461
Mof_P 	P 	0.13124	0.85488	0.46573	0.47
Mof_O 	O 	0.99032	0.64055	0.29936	-0.438
Mof_O 	O 	0.06576	0.71108	0.3438	-0.433
Mof_O 	O 	0.04581	0.6887	0.16272	-0.451
Mof_O 	O 	0.9577	0.58359	0.50024	-0.429
Mof_O 	O 	0.97362	0.52441	0.56586	-0.455
Mof_O 	O 	0.9888	0.54667	0.38326	-0.444
Mof_O 	O 	0.07435	0.80031	0.22347	-0.474
Mof_O 	O 	0.12808	0.84421	0.07876	-0.445
Mof_O 	O 	0.051	0.77276	0.04543	-0.451
Mof_O 	O 	0.11221	0.80479	0.43788	-0.459
Mof_O 	O 	0.13891	0.86273	0.5767	-0.428
Mof_O 	O 	0.1724	0.8878	0.40493	-0.475
Mof_H 	H 	0.06587	0.64323	0.27393	-0.377
Mof_H 	H 	0.03967	0.59853	0.51343	-0.384
Mof_H 	H 	0.06007	0.83763	0.10593	-0.033
Mof_H 	H 	0.09867	0.86463	0.45213	-0.023
Mof_O 	O 	0.06347	0.64283	0.27323	0.36
Mof_O 	O 	0.03977	0.59963	0.51363	0.333
Mof_Zn	Zn	0.62386	0.96578	0.7572	1.236
Mof_Zn	Zn	0.77207	0.11017	0.63919	1.232
Mof_Zn	Zn	0.66217	0.83149	0.99812	1.237
Mof_P 	P 	0.70719	0.00507	0.60427	0.421
Mof_P 	P 	0.65542	0.89583	0.82316	0.451
Mof_P 	P 	0.74508	0.14741	0.44723	0.461
Mof_P 	P 	0.7979	0.18822	0.79907	0.47
Mof_O 	O 	0.65698	0.97389	0.6327	-0.438
Mof_O 	O 	0.73242	0.04442	0.67714	-0.433
Mof_O 	O 	0.71247	0.02204	0.49606	-0.451
Mof_O 	O 	0.62436	0.91693	0.83358	-0.429
Mof_O 	O 	0.64028	0.85775	0.8992	-0.456
Mof_O 	O 	0.65546	0.88001	0.7166	-0.444
Mof_O 	O 	0.74101	0.13365	0.55681	-0.474
Mof_O 	O 	0.79474	0.17755	0.4121	-0.445
Mof_O 	O 	0.71766	0.1061	0.37877	-0.452
Mof_O 	O 	0.77887	0.13813	0.77122	-0.459
Mof_O 	O 	0.80557	0.19607	0.91004	-0.427
Mof_O 	O 	0.83906	0.22114	0.73827	-0.474
Mof_H 	H 	0.73253	0.97657	0.60727	-0.377
Mof_H 	H 	0.70633	0.93187	0.84677	-0.384
Mof_H 	H 	0.72673	0.17097	0.43927	-0.034
Mof_H 	H 	0.76533	0.19797	0.78547	-0.023
Mof_O 	O 	0.73013	0.97617	0.60657	0.36
Mof_O 	O 	0.70643	0.93297	0.84697	0.333
_end
