data_functionalizedCrystal
_audit_creation_method	'EQeq! by Chris Wilmer'
_symmetry_space_group_name_H-M	'P1'
_symmetry_Int_Tables_number	1
_symmetry_cell_setting	triclinic
loop_
_symmetry_equiv_pos_as_xyz
  x,y,z
_cell_length_a	10.9399
_cell_length_b	10.9399
_cell_length_c	9.614
_cell_angle_alpha	90
_cell_angle_beta	90
_cell_angle_gamma	90
loop_
_atom_site_label
_atom_site_type_symbol
_atom_site_fract_x
_atom_site_fract_y
_atom_site_fract_z
_atom_site_charge
Mof_O 	O 	0.18272	0.0166	0.38486	0.031
Mof_C 	C 	0.0482	0.114	0.0799	-0.472
Mof_H 	H 	0.131	0.1256	0.1135	0.166
Mof_O 	O 	0.81728	0.9834	0.38486	-0.395
Mof_C 	C 	0.9518	0.886	0.0799	0.473
Mof_H 	H 	0.869	0.8744	0.1135	-0.139
Mof_O 	O 	0.9834	0.18272	0.38486	-0.426
Mof_C 	C 	0.886	0.0482	0.0799	-1.177
Mof_H 	H 	0.8744	0.131	0.1135	0.117
Mof_O 	O 	0.0166	0.81728	0.38486	0.038
Mof_C 	C 	0.114	0.9518	0.0799	1.189
Mof_H 	H 	0.1256	0.869	0.1135	-0.09
Mof_O 	O 	0.81728	0.0166	0.61514	0.038
Mof_C 	C 	0.9518	0.114	0.9201	1.189
Mof_H 	H 	0.869	0.1256	0.8865	-0.09
Mof_O 	O 	0.18272	0.9834	0.61514	-0.426
Mof_C 	C 	0.0482	0.886	0.9201	-1.177
Mof_H 	H 	0.131	0.8744	0.8865	0.117
Mof_O 	O 	0.0166	0.18272	0.61514	0.032
Mof_C 	C 	0.114	0.0482	0.9201	-0.471
Mof_H 	H 	0.1256	0.131	0.8865	0.167
Mof_O 	O 	0.9834	0.81728	0.61514	-0.394
Mof_C 	C 	0.886	0.9518	0.9201	0.474
Mof_H 	H 	0.8744	0.869	0.8865	-0.138
Mof_O 	O 	0.81728	0.9834	0.61514	-0.394
Mof_C 	C 	0.9518	0.886	0.9201	0.474
Mof_H 	H 	0.869	0.8744	0.8865	-0.138
Mof_O 	O 	0.18272	0.0166	0.61514	0.032
Mof_C 	C 	0.0482	0.114	0.9201	-0.471
Mof_H 	H 	0.131	0.1256	0.8865	0.167
Mof_O 	O 	0.0166	0.81728	0.61514	0.038
Mof_C 	C 	0.114	0.9518	0.9201	1.189
Mof_H 	H 	0.1256	0.869	0.8865	-0.09
Mof_O 	O 	0.9834	0.18272	0.61514	-0.426
Mof_C 	C 	0.886	0.0482	0.9201	-1.177
Mof_H 	H 	0.8744	0.131	0.8865	0.117
Mof_O 	O 	0.18272	0.9834	0.38486	-0.426
Mof_C 	C 	0.0482	0.886	0.0799	-1.177
Mof_H 	H 	0.131	0.8744	0.1135	0.117
Mof_O 	O 	0.81728	0.0166	0.38486	0.038
Mof_C 	C 	0.9518	0.114	0.0799	1.189
Mof_H 	H 	0.869	0.1256	0.1135	-0.09
Mof_O 	O 	0.9834	0.81728	0.38486	-0.394
Mof_C 	C 	0.886	0.9518	0.0799	0.474
Mof_H 	H 	0.8744	0.869	0.1135	-0.138
Mof_O 	O 	0.0166	0.18272	0.38486	0.032
Mof_C 	C 	0.114	0.0482	0.0799	-0.471
Mof_H 	H 	0.1256	0.131	0.1135	0.167
Mof_Zn	Zn	1.15298e-33	2.74239e-33	0.34992	1.17
Mof_N 	N 	4.40539e-34	0	0.1337	-0.273
Mof_Zn	Zn	2.142e-33	0	0.65008	1.17
Mof_N 	N 	-2.63035e-33	0	0.8663	-0.273
Mof_C 	C 	0.2353	0	0.5	0.237
Mof_C 	C 	0.3728	0	0.5	-0.044
Mof_C 	C 	0.7647	0	0.5	0.255
Mof_C 	C 	0.6272	0	0.5	-0.046
Mof_C 	C 	1.64749e-33	0.2353	0.5	0.237
Mof_C 	C 	1.64749e-33	0.3728	0.5	-0.044
Mof_C 	C 	1.64749e-33	0.7647	0.5	0.255
Mof_C 	C 	-3.8373e-33	0.6272	0.5	-0.046
Mof_C 	C 	0.43672	0	0.6214	-0.036
Mof_H 	H 	0.3948	0	0.7055	0.048
Mof_C 	C 	0.56328	0	0.6214	-0.025
Mof_H 	H 	0.6052	0	0.7055	0.045
Mof_C 	C 	-3.43729e-33	0.43672	0.6214	-0.036
Mof_H 	H 	1.32942e-32	0.3948	0.7055	0.048
Mof_C 	C 	7.53228e-33	0.56328	0.6214	-0.025
Mof_H 	H 	7.80939e-33	0.6052	0.7055	0.045
Mof_C 	C 	0.56328	-2.74239e-33	0.3786	-0.025
Mof_H 	H 	0.6052	-2.74239e-33	0.2945	0.045
Mof_C 	C 	0.43672	-2.74239e-33	0.3786	-0.036
Mof_H 	H 	0.3948	-2.74239e-33	0.2945	0.048
Mof_C 	C 	-1.49491e-33	0.43672	0.3786	-0.036
Mof_H 	H 	-1.77202e-33	0.3948	0.2945	0.048
Mof_C 	C 	-1.49491e-33	0.56328	0.3786	-0.025
Mof_H 	H 	9.19755e-33	0.6052	0.2945	0.045
Mof_H 	H 	-3.11618e-34	0.1815	0.1135	-0.267
Mof_H 	H 	2.43077e-33	0.8185	0.1135	0.266
Mof_H 	H 	0.8185	-6.85598e-34	0.1135	0.266
Mof_H 	H 	0.1815	-6.85598e-34	0.1135	-0.267
Mof_H 	H 	2.921e-33	0.1815	0.8865	-0.267
Mof_H 	H 	2.921e-33	0.8185	0.8865	0.266
Mof_H 	H 	0.1815	0	0.8865	-0.267
Mof_H 	H 	0.8185	0	0.8865	0.266
_end
