data_functionalizedCrystal
_audit_creation_method	'EQeq! by Chris Wilmer'
_symmetry_space_group_name_H-M	'P1'
_symmetry_Int_Tables_number	1
_symmetry_cell_setting	triclinic
loop_
_symmetry_equiv_pos_as_xyz
  x,y,z
_cell_length_a	31.283
_cell_length_b	14.5442
_cell_length_c	8.6817
_cell_angle_alpha	90
_cell_angle_beta	96.033
_cell_angle_gamma	90
loop_
_atom_site_label
_atom_site_type_symbol
_atom_site_fract_x
_atom_site_fract_y
_atom_site_fract_z
_atom_site_charge
Mof_Ce	Ce	0.67296	0.56042	0.7739	2.738
Mof_O 	O 	0.69944	0.5371	0.5162	-0.724
Mof_O 	O 	0.74689	0.5357	0.346	-0.462
Mof_O 	O 	0.80668	0.8435	0.994	-0.613
Mof_O 	O 	0.84134	0.8985	0.7998	-0.587
Mof_N 	N 	0.74311	0.6543	0.7019	-0.273
Mof_C 	C 	0.73467	0.5628	0.4702	0.368
Mof_C 	C 	0.76051	0.6313	0.5712	-0.02
Mof_C 	C 	0.79742	0.6712	0.5295	-0.104
Mof_H 	H 	0.8095	0.6516	0.439	0.041
Mof_C 	C 	0.8167	0.7406	0.6216	0.084
Mof_H 	H 	0.8416	0.7709	0.5927	-0.03
Mof_C 	C 	0.79953	0.765	0.7557	-0.224
Mof_C 	C 	0.7625	0.7183	0.792	0.132
Mof_H 	H 	0.751	0.7334	0.8856	-0.034
Mof_C 	C 	0.81748	0.8406	0.8578	0.515
Mof_O 	O 	0.61158	0.5714	0.5711	-0.608
Mof_O 	O 	0.60683	0.4577	0.3982	-0.608
Mof_C 	C 	0.5913	0.5125	0.4871	0.504
Mof_C 	C 	0.5437	0.5059	0.4934	-0.047
Mof_C 	C 	0.5217	0.575	0.5571	-0.073
Mof_H 	H 	0.5369	0.6275	0.5986	0.029
Mof_N 	N 	0.5213	0.4303	0.438	-0.171
Mof_C 	C 	0.4787	0.5697	0.562	0.087
Mof_H 	H 	0.536	0.3808	0.3955	0.062
Mof_H 	H 	0.4642	0.3764	0.4045	-0.004
Mof_H 	H 	0.4651	0.6155	0.6014	0.001
Mof_Ce	Ce	0.17296	0.06042	0.7739	2.723
Mof_O 	O 	0.19944	0.0371	0.5162	-0.727
Mof_O 	O 	0.24689	0.0357	0.346	-0.465
Mof_O 	O 	0.30668	0.3435	0.994	-0.614
Mof_O 	O 	0.34134	0.3985	0.7998	-0.591
Mof_N 	N 	0.24311	0.1543	0.7019	-0.273
Mof_C 	C 	0.23467	0.0628	0.4702	0.368
Mof_C 	C 	0.26051	0.1313	0.5712	-0.021
Mof_C 	C 	0.29742	0.1712	0.5295	-0.105
Mof_H 	H 	0.3095	0.1516	0.439	0.04
Mof_C 	C 	0.3167	0.2406	0.6216	0.084
Mof_H 	H 	0.3416	0.2709	0.5927	-0.031
Mof_C 	C 	0.29953	0.265	0.7557	-0.225
Mof_C 	C 	0.2625	0.2183	0.792	0.131
Mof_H 	H 	0.251	0.2334	0.8856	-0.034
Mof_C 	C 	0.31748	0.3406	0.8578	0.515
Mof_O 	O 	0.11158	0.0714	0.5711	-0.606
Mof_O 	O 	0.10683	0.9577	0.3982	-0.603
Mof_C 	C 	0.0913	0.0125	0.4871	0.499
Mof_C 	C 	0.0437	0.0059	0.4934	-0.053
Mof_C 	C 	0.0217	0.075	0.5571	-0.066
Mof_H 	H 	0.0369	0.1275	0.5986	0.027
Mof_N 	N 	0.0213	0.9303	0.438	-0.166
Mof_C 	C 	0.9787	0.0697	0.562	0.074
Mof_H 	H 	0.036	0.8808	0.3955	0.061
Mof_H 	H 	0.9642	0.8764	0.4045	-0.003
Mof_H 	H 	0.9651	0.1155	0.6014	0.002
Mof_Ce	Ce	0.32704	0.56042	0.7261	2.733
Mof_O 	O 	0.30056	0.5371	0.9838	-0.721
Mof_O 	O 	0.25311	0.5357	0.154	-0.46
Mof_O 	O 	0.19332	0.8435	0.506	-0.616
Mof_O 	O 	0.15866	0.8985	0.7002	-0.588
Mof_N 	N 	0.25689	0.6543	0.7981	-0.273
Mof_C 	C 	0.26533	0.5628	0.0298	0.362
Mof_C 	C 	0.23949	0.6313	0.9288	-0.018
Mof_C 	C 	0.20258	0.6712	0.9705	-0.1
Mof_H 	H 	0.1905	0.6516	0.061	0.038
Mof_C 	C 	0.1833	0.7406	0.8784	0.082
Mof_H 	H 	0.1584	0.7709	0.9073	-0.029
Mof_C 	C 	0.20047	0.765	0.7443	-0.224
Mof_C 	C 	0.2375	0.7183	0.708	0.132
Mof_H 	H 	0.249	0.7334	0.6144	-0.034
Mof_C 	C 	0.18252	0.8406	0.6422	0.515
Mof_O 	O 	0.38842	0.5714	0.9289	-0.604
Mof_O 	O 	0.39317	0.4577	0.1018	-0.607
Mof_C 	C 	0.4087	0.5125	0.0129	0.501
Mof_C 	C 	0.4563	0.5059	0.0066	-0.051
Mof_C 	C 	0.4783	0.575	0.9429	-0.067
Mof_H 	H 	0.4631	0.6275	0.9014	0.028
Mof_N 	N 	0.4787	0.4303	0.062	-0.17
Mof_C 	C 	0.5213	0.5697	0.938	0.083
Mof_H 	H 	0.464	0.3808	0.1045	0.061
Mof_H 	H 	0.5358	0.3764	0.0955	-0.004
Mof_H 	H 	0.5349	0.6155	0.8986	0.002
Mof_Ce	Ce	0.82704	0.06042	0.7261	2.72
Mof_O 	O 	0.80056	0.0371	0.9838	-0.724
Mof_O 	O 	0.75311	0.0357	0.154	-0.464
Mof_O 	O 	0.69332	0.3435	0.506	-0.616
Mof_O 	O 	0.65866	0.3985	0.7002	-0.592
Mof_N 	N 	0.75689	0.1543	0.7981	-0.273
Mof_C 	C 	0.76533	0.0628	0.0298	0.364
Mof_C 	C 	0.73949	0.1313	0.9288	-0.019
Mof_C 	C 	0.70258	0.1712	0.9705	-0.102
Mof_H 	H 	0.6905	0.1516	0.061	0.038
Mof_C 	C 	0.6833	0.2406	0.8784	0.083
Mof_H 	H 	0.6584	0.2709	0.9073	-0.03
Mof_C 	C 	0.70047	0.265	0.7443	-0.225
Mof_C 	C 	0.7375	0.2183	0.708	0.131
Mof_H 	H 	0.749	0.2334	0.6144	-0.035
Mof_C 	C 	0.68252	0.3406	0.6422	0.515
Mof_O 	O 	0.88842	0.0714	0.9289	-0.604
Mof_O 	O 	0.89317	0.9577	0.1018	-0.604
Mof_C 	C 	0.9087	0.0125	0.0129	0.498
Mof_C 	C 	0.9563	0.0059	0.0066	-0.056
Mof_C 	C 	0.9783	0.075	0.9429	-0.06
Mof_H 	H 	0.9631	0.1275	0.9014	0.026
Mof_N 	N 	0.9787	0.9303	0.062	-0.166
Mof_C 	C 	0.0213	0.0697	0.938	0.068
Mof_H 	H 	0.964	0.8808	0.1045	0.061
Mof_H 	H 	0.0358	0.8764	0.0955	-0.003
Mof_H 	H 	0.0349	0.1155	0.8986	0.002
Mof_Ce	Ce	0.32704	0.43958	0.2261	2.726
Mof_O 	O 	0.30056	0.4629	0.4838	-0.724
Mof_O 	O 	0.25311	0.4643	0.654	-0.461
Mof_O 	O 	0.19332	0.1565	0.006	-0.616
Mof_O 	O 	0.15866	0.1015	0.2002	-0.595
Mof_N 	N 	0.25689	0.3457	0.2981	-0.273
Mof_C 	C 	0.26533	0.4372	0.5298	0.368
Mof_C 	C 	0.23949	0.3687	0.4288	-0.019
Mof_C 	C 	0.20258	0.3288	0.4705	-0.106
Mof_H 	H 	0.1905	0.3484	0.561	0.041
Mof_C 	C 	0.1833	0.2594	0.3784	0.086
Mof_H 	H 	0.1584	0.2291	0.4073	-0.031
Mof_C 	C 	0.20047	0.235	0.2443	-0.226
Mof_C 	C 	0.2375	0.2817	0.208	0.132
Mof_H 	H 	0.249	0.2666	0.1144	-0.036
Mof_C 	C 	0.18252	0.1594	0.1422	0.516
Mof_O 	O 	0.38842	0.4286	0.4289	-0.624
Mof_O 	O 	0.39317	0.5423	0.6018	-0.625
Mof_C 	C 	0.4087	0.4875	0.5129	0.567
Mof_C 	C 	0.4563	0.4941	0.5066	-0.225
Mof_C 	C 	0.4783	0.425	0.4429	0.138
Mof_H 	H 	0.4631	0.3725	0.4014	-0.017
Mof_H 	H 	0.464	0.6192	0.6045	-0.006
Mof_H 	H 	0.5358	0.6236	0.5955	0.014
Mof_H 	H 	0.5349	0.3845	0.3986	0.023
Mof_Ce	Ce	0.82704	0.93958	0.2261	2.737
Mof_O 	O 	0.80056	0.9629	0.4838	-0.721
Mof_O 	O 	0.75311	0.9643	0.654	-0.457
Mof_O 	O 	0.69332	0.6565	0.006	-0.618
Mof_O 	O 	0.65866	0.6015	0.2002	-0.592
Mof_N 	N 	0.75689	0.8457	0.2981	-0.273
Mof_C 	C 	0.76533	0.9372	0.5298	0.367
Mof_C 	C 	0.73949	0.8687	0.4288	-0.018
Mof_C 	C 	0.70258	0.8288	0.4705	-0.106
Mof_H 	H 	0.6905	0.8484	0.561	0.042
Mof_C 	C 	0.6833	0.7594	0.3784	0.086
Mof_H 	H 	0.6584	0.7291	0.4073	-0.031
Mof_C 	C 	0.70047	0.735	0.2443	-0.226
Mof_C 	C 	0.7375	0.7817	0.208	0.133
Mof_H 	H 	0.749	0.7666	0.1144	-0.036
Mof_C 	C 	0.68252	0.6594	0.1422	0.516
Mof_O 	O 	0.88842	0.9286	0.4289	-0.625
Mof_O 	O 	0.89317	0.0423	0.6018	-0.629
Mof_C 	C 	0.9087	0.9875	0.5129	0.572
Mof_C 	C 	0.9563	0.9941	0.5066	-0.215
Mof_C 	C 	0.9783	0.925	0.4429	0.135
Mof_H 	H 	0.9631	0.8725	0.4014	-0.017
Mof_H 	H 	0.964	0.1192	0.6045	-0.003
Mof_H 	H 	0.0358	0.1236	0.5955	0.013
Mof_H 	H 	0.0349	0.8845	0.3986	0.023
Mof_Ce	Ce	0.67296	0.43958	0.2739	2.731
Mof_O 	O 	0.69944	0.4629	0.0162	-0.728
Mof_O 	O 	0.74689	0.4643	0.846	-0.462
Mof_O 	O 	0.80668	0.1565	0.494	-0.615
Mof_O 	O 	0.84134	0.1015	0.2998	-0.594
Mof_N 	N 	0.74311	0.3457	0.2019	-0.273
Mof_C 	C 	0.73467	0.4372	0.9702	0.372
Mof_C 	C 	0.76051	0.3687	0.0712	-0.021
Mof_C 	C 	0.79742	0.3288	0.0295	-0.11
Mof_H 	H 	0.8095	0.3484	0.939	0.044
Mof_C 	C 	0.8167	0.2594	0.1216	0.088
Mof_H 	H 	0.8416	0.2291	0.0927	-0.033
Mof_C 	C 	0.79953	0.235	0.2557	-0.227
Mof_C 	C 	0.7625	0.2817	0.292	0.133
Mof_H 	H 	0.751	0.2666	0.3856	-0.035
Mof_C 	C 	0.81748	0.1594	0.3578	0.516
Mof_O 	O 	0.61158	0.4286	0.0711	-0.626
Mof_O 	O 	0.60683	0.5423	0.8982	-0.625
Mof_C 	C 	0.5913	0.4875	0.9871	0.568
Mof_C 	C 	0.5437	0.4941	0.9934	-0.22
Mof_C 	C 	0.5217	0.425	0.0571	0.133
Mof_H 	H 	0.5369	0.3725	0.0986	-0.017
Mof_H 	H 	0.536	0.6192	0.8955	-0.005
Mof_H 	H 	0.4642	0.6236	0.9045	0.014
Mof_H 	H 	0.4651	0.3845	0.1014	0.023
Mof_Ce	Ce	0.17296	0.93958	0.2739	2.743
Mof_O 	O 	0.19944	0.9629	0.0162	-0.727
Mof_O 	O 	0.24689	0.9643	0.846	-0.459
Mof_O 	O 	0.30668	0.6565	0.494	-0.615
Mof_O 	O 	0.34134	0.6015	0.2998	-0.592
Mof_N 	N 	0.24311	0.8457	0.2019	-0.273
Mof_C 	C 	0.23467	0.9372	0.9702	0.374
Mof_C 	C 	0.26051	0.8687	0.0712	-0.021
Mof_C 	C 	0.29742	0.8288	0.0295	-0.113
Mof_H 	H 	0.3095	0.8484	0.939	0.047
Mof_C 	C 	0.3167	0.7594	0.1216	0.089
Mof_H 	H 	0.3416	0.7291	0.0927	-0.033
Mof_C 	C 	0.29953	0.735	0.2557	-0.227
Mof_C 	C 	0.2625	0.7817	0.292	0.134
Mof_H 	H 	0.251	0.7666	0.3856	-0.035
Mof_C 	C 	0.31748	0.6594	0.3578	0.516
Mof_O 	O 	0.11158	0.9286	0.0711	-0.629
Mof_O 	O 	0.10683	0.0423	0.8982	-0.631
Mof_C 	C 	0.0913	0.9875	0.9871	0.575
Mof_C 	C 	0.0437	0.9941	0.9934	-0.208
Mof_C 	C 	0.0217	0.925	0.0571	0.128
Mof_H 	H 	0.0369	0.8725	0.0986	-0.016
Mof_H 	H 	0.036	0.1192	0.8955	-0.002
Mof_H 	H 	0.9642	0.1236	0.9045	0.013
Mof_H 	H 	0.9651	0.8845	0.1014	0.023
_end
