data_functionalizedCrystal
_audit_creation_method	'EQeq! by Chris Wilmer'
_symmetry_space_group_name_H-M	'P1'
_symmetry_Int_Tables_number	1
_symmetry_cell_setting	triclinic
loop_
_symmetry_equiv_pos_as_xyz
  x,y,z
_cell_length_a	15.0609
_cell_length_b	15.0609
_cell_length_c	19.2433
_cell_angle_alpha	90
_cell_angle_beta	90
_cell_angle_gamma	90
loop_
_atom_site_label
_atom_site_type_symbol
_atom_site_fract_x
_atom_site_fract_y
_atom_site_fract_z
_atom_site_charge
Mof_O 	O 	0.0551	0.8783	0.05751	-0.577
Mof_C 	C 	0.1708	0.7361	0.0613	0.068
Mof_H 	H 	0.1478	0.7564	0.1032	-0.012
Mof_C 	C 	0.0744	0.9487	0.2099	0.574
Mof_H 	H 	0.1289	0.9829	0.2071	-0.25
Mof_H 	H 	0.0818	0.8946	0.1832	-0.022
Mof_C 	C 	0.0889	0.0174	0.2113	-0.497
Mof_H 	H 	0.1018	0.0805	0.21	0.057
Mof_H 	H 	0.1334	0.9864	0.1841	0.312
Mof_O 	O 	0.5551	0.3783	0.55751	-0.429
Mof_C 	C 	0.6708	0.2361	0.5613	-0.082
Mof_H 	H 	0.6478	0.2564	0.6032	0.07
Mof_C 	C 	0.5744	0.4487	0.7099	-0.261
Mof_H 	H 	0.6289	0.4829	0.7071	0.668
Mof_H 	H 	0.5818	0.3946	0.6832	0.045
Mof_C 	C 	0.5889	0.5174	0.7113	-0.11
Mof_H 	H 	0.6018	0.5805	0.71	0.123
Mof_H 	H 	0.6334	0.4864	0.6841	-0.528
Mof_O 	O 	0.9449	0.1217	0.05751	-0.29
Mof_C 	C 	0.8292	0.2639	0.0613	-0.079
Mof_H 	H 	0.8522	0.2436	0.1032	0.099
Mof_C 	C 	0.9256	0.0513	0.2099	-0.522
Mof_H 	H 	0.8711	0.0171	0.2071	0.46
Mof_H 	H 	0.9182	0.1054	0.1832	0.135
Mof_C 	C 	0.9111	0.9826	0.2113	0.383
Mof_H 	H 	0.8982	0.9195	0.21	0.158
Mof_H 	H 	0.8666	0.0136	0.1841	-0.434
Mof_O 	O 	0.4449	0.6217	0.55751	-0.434
Mof_C 	C 	0.3292	0.7639	0.5613	0.042
Mof_H 	H 	0.3522	0.7436	0.6032	0.038
Mof_C 	C 	0.4256	0.5513	0.7099	-0.254
Mof_H 	H 	0.3711	0.5171	0.7071	0.658
Mof_H 	H 	0.4182	0.6054	0.6832	0.045
Mof_C 	C 	0.4111	0.4826	0.7113	-0.108
Mof_H 	H 	0.3982	0.4195	0.71	0.117
Mof_H 	H 	0.3666	0.5136	0.6841	-0.531
Mof_O 	O 	0.1217	0.0551	0.05751	-0.495
Mof_C 	C 	0.2639	0.1708	0.0613	0.015
Mof_H 	H 	0.2436	0.1478	0.1032	0.013
Mof_C 	C 	0.0513	0.0744	0.2099	-0.33
Mof_H 	H 	0.0171	0.1289	0.2071	3.106
Mof_H 	H 	0.1054	0.0818	0.1832	0.138
Mof_C 	C 	0.9826	0.0889	0.2113	-0.937
Mof_H 	H 	0.9195	0.1018	0.21	0.5
Mof_H 	H 	0.0136	0.1334	0.1841	-2.586
Mof_O 	O 	0.6217	0.5551	0.55751	-0.429
Mof_C 	C 	0.7639	0.6708	0.5613	0.011
Mof_H 	H 	0.7436	0.6478	0.6032	0.055
Mof_C 	C 	0.5513	0.5744	0.7099	-0.258
Mof_H 	H 	0.5171	0.6289	0.7071	0.664
Mof_H 	H 	0.6054	0.5818	0.6832	0.048
Mof_C 	C 	0.4826	0.5889	0.7113	-0.111
Mof_H 	H 	0.4195	0.6018	0.71	0.12
Mof_H 	H 	0.5136	0.6334	0.6841	-0.524
Mof_O 	O 	0.8783	0.9449	0.05751	-0.373
Mof_C 	C 	0.7361	0.8292	0.0613	-0.027
Mof_H 	H 	0.7564	0.8522	0.1032	0.075
Mof_C 	C 	0.9487	0.9256	0.2099	0.132
Mof_H 	H 	0.9829	0.8711	0.2071	-2.843
Mof_H 	H 	0.8946	0.9182	0.1832	-0.178
Mof_C 	C 	0.0174	0.9111	0.2113	1.038
Mof_H 	H 	0.0805	0.8982	0.21	-0.607
Mof_H 	H 	0.9864	0.8666	0.1841	2.385
Mof_O 	O 	0.3783	0.4449	0.55751	-0.434
Mof_C 	C 	0.2361	0.3292	0.5613	-0.051
Mof_H 	H 	0.2564	0.3522	0.6032	0.053
Mof_C 	C 	0.4487	0.4256	0.7099	-0.256
Mof_H 	H 	0.4829	0.3711	0.7071	0.662
Mof_H 	H 	0.3946	0.4182	0.6832	0.042
Mof_C 	C 	0.5174	0.4111	0.7113	-0.107
Mof_H 	H 	0.5805	0.3982	0.71	0.121
Mof_H 	H 	0.4864	0.3666	0.6841	-0.535
Mof_O 	O 	0.9449	0.8783	0.44249	-0.376
Mof_C 	C 	0.8292	0.7361	0.4387	-0.031
Mof_H 	H 	0.8522	0.7564	0.3968	0.078
Mof_C 	C 	0.9256	0.9487	0.2901	0.121
Mof_H 	H 	0.8711	0.9829	0.2929	-2.818
Mof_H 	H 	0.9182	0.8946	0.3168	-0.175
Mof_C 	C 	0.9111	0.0174	0.2887	1.034
Mof_H 	H 	0.8982	0.0805	0.29	-0.604
Mof_H 	H 	0.8666	0.9864	0.3159	2.367
Mof_O 	O 	0.4449	0.3783	0.94249	-0.386
Mof_C 	C 	0.3292	0.2361	0.9387	0.002
Mof_H 	H 	0.3522	0.2564	0.8968	0.042
Mof_C 	C 	0.4256	0.4487	0.7901	-0.26
Mof_H 	H 	0.3711	0.4829	0.7929	0.675
Mof_H 	H 	0.4182	0.3946	0.8168	0.044
Mof_C 	C 	0.4111	0.5174	0.7887	-0.112
Mof_H 	H 	0.3982	0.5805	0.79	0.123
Mof_H 	H 	0.3666	0.4864	0.8159	-0.543
Mof_O 	O 	0.0551	0.1217	0.44249	-0.501
Mof_C 	C 	0.1708	0.2639	0.4387	0.012
Mof_H 	H 	0.1478	0.2436	0.3968	0.015
Mof_C 	C 	0.0744	0.0513	0.2901	-0.326
Mof_H 	H 	0.1289	0.0171	0.2929	3.12
Mof_H 	H 	0.0818	0.1054	0.3168	0.143
Mof_C 	C 	0.0889	0.9826	0.2887	-0.947
Mof_H 	H 	0.1018	0.9195	0.29	0.499
Mof_H 	H 	0.1334	0.0136	0.3159	-2.595
Mof_O 	O 	0.5551	0.6217	0.94249	-0.381
Mof_C 	C 	0.6708	0.7639	0.9387	0.063
Mof_H 	H 	0.6478	0.7436	0.8968	0.044
Mof_C 	C 	0.5744	0.5513	0.7901	-0.261
Mof_H 	H 	0.6289	0.5171	0.7929	0.676
Mof_H 	H 	0.5818	0.6054	0.8168	0.05
Mof_C 	C 	0.5889	0.4826	0.7887	-0.117
Mof_H 	H 	0.6018	0.4195	0.79	0.122
Mof_H 	H 	0.6334	0.5136	0.8159	-0.532
Mof_O 	O 	0.8783	0.0551	0.44249	-0.58
Mof_C 	C 	0.7361	0.1708	0.4387	0.065
Mof_H 	H 	0.7564	0.1478	0.3968	-0.008
Mof_C 	C 	0.9487	0.0744	0.2901	0.569
Mof_H 	H 	0.9829	0.1289	0.2929	-0.244
Mof_H 	H 	0.8946	0.0818	0.3168	-0.019
Mof_C 	C 	0.0174	0.0889	0.2887	-0.497
Mof_H 	H 	0.0805	0.1018	0.29	0.053
Mof_H 	H 	0.9864	0.1334	0.3159	0.311
Mof_O 	O 	0.3783	0.5551	0.94249	-0.381
Mof_C 	C 	0.2361	0.6708	0.9387	-0.03
Mof_H 	H 	0.2564	0.6478	0.8968	0.06
Mof_C 	C 	0.4487	0.5744	0.7901	-0.264
Mof_H 	H 	0.4829	0.6289	0.7929	0.68
Mof_H 	H 	0.3946	0.5818	0.8168	0.047
Mof_C 	C 	0.5174	0.5889	0.7887	-0.115
Mof_H 	H 	0.5805	0.6018	0.79	0.125
Mof_H 	H 	0.4864	0.6334	0.8159	-0.535
Mof_O 	O 	0.1217	0.9449	0.44249	-0.295
Mof_C 	C 	0.2639	0.8292	0.4387	-0.083
Mof_H 	H 	0.2436	0.8522	0.3968	0.102
Mof_C 	C 	0.0513	0.9256	0.2901	-0.524
Mof_H 	H 	0.0171	0.8711	0.2929	0.494
Mof_H 	H 	0.1054	0.9182	0.3168	0.14
Mof_C 	C 	0.9826	0.9111	0.2887	0.37
Mof_H 	H 	0.9195	0.8982	0.29	0.165
Mof_H 	H 	0.0136	0.8666	0.3159	-0.46
Mof_O 	O 	0.6217	0.4449	0.94249	-0.387
Mof_C 	C 	0.7639	0.3292	0.9387	0.095
Mof_H 	H 	0.7436	0.3522	0.8968	0.027
Mof_C 	C 	0.5513	0.4256	0.7901	-0.258
Mof_H 	H 	0.5171	0.3711	0.7929	0.672
Mof_H 	H 	0.6054	0.4182	0.8168	0.047
Mof_C 	C 	0.4826	0.4111	0.7887	-0.113
Mof_H 	H 	0.4195	0.3982	0.79	0.119
Mof_H 	H 	0.5136	0.3666	0.8159	-0.539
Mof_O 	O 	0.9449	0.1217	0.94249	-0.249
Mof_C 	C 	0.8292	0.2639	0.9387	-0.031
Mof_H 	H 	0.8522	0.2436	0.8968	0.092
Mof_C 	C 	0.9256	0.0513	0.7901	-0.523
Mof_H 	H 	0.8711	0.0171	0.7929	0.468
Mof_H 	H 	0.9182	0.1054	0.8168	0.138
Mof_C 	C 	0.9111	0.9826	0.7887	0.377
Mof_H 	H 	0.8982	0.9195	0.79	0.16
Mof_H 	H 	0.8666	0.0136	0.8159	-0.437
Mof_O 	O 	0.4449	0.6217	0.44249	-0.434
Mof_C 	C 	0.3292	0.7639	0.4387	0.042
Mof_H 	H 	0.3522	0.7436	0.3968	0.037
Mof_C 	C 	0.4256	0.5513	0.2901	-0.26
Mof_H 	H 	0.3711	0.5171	0.2929	0.681
Mof_H 	H 	0.4182	0.6054	0.3168	0.048
Mof_C 	C 	0.4111	0.4826	0.2887	-0.114
Mof_H 	H 	0.3982	0.4195	0.29	0.118
Mof_H 	H 	0.3666	0.5136	0.3159	-0.549
Mof_O 	O 	0.0551	0.8783	0.94249	-0.534
Mof_C 	C 	0.1708	0.7361	0.9387	0.117
Mof_H 	H 	0.1478	0.7564	0.8968	-0.018
Mof_C 	C 	0.0744	0.9487	0.7901	0.574
Mof_H 	H 	0.1289	0.9829	0.7929	-0.244
Mof_H 	H 	0.0818	0.8946	0.8168	-0.018
Mof_C 	C 	0.0889	0.0174	0.7887	-0.501
Mof_H 	H 	0.1018	0.0805	0.79	0.06
Mof_H 	H 	0.1334	0.9864	0.8159	0.312
Mof_O 	O 	0.5551	0.3783	0.44249	-0.428
Mof_C 	C 	0.6708	0.2361	0.4387	-0.083
Mof_H 	H 	0.6478	0.2564	0.3968	0.069
Mof_C 	C 	0.5744	0.4487	0.2901	-0.267
Mof_H 	H 	0.6289	0.4829	0.2929	0.69
Mof_H 	H 	0.5818	0.3946	0.3168	0.047
Mof_C 	C 	0.5889	0.5174	0.2887	-0.116
Mof_H 	H 	0.6018	0.5805	0.29	0.124
Mof_H 	H 	0.6334	0.4864	0.3159	-0.547
Mof_O 	O 	0.8783	0.9449	0.94249	-0.332
Mof_C 	C 	0.7361	0.8292	0.9387	0.021
Mof_H 	H 	0.7564	0.8522	0.8968	0.068
Mof_C 	C 	0.9487	0.9256	0.7901	0.131
Mof_H 	H 	0.9829	0.8711	0.7929	-2.836
Mof_H 	H 	0.8946	0.9182	0.8168	-0.176
Mof_C 	C 	0.0174	0.9111	0.7887	1.034
Mof_H 	H 	0.0805	0.8982	0.79	-0.605
Mof_H 	H 	0.9864	0.8666	0.8159	2.384
Mof_O 	O 	0.3783	0.4449	0.44249	-0.433
Mof_C 	C 	0.2361	0.3292	0.4387	-0.051
Mof_H 	H 	0.2564	0.3522	0.3968	0.052
Mof_C 	C 	0.4487	0.4256	0.2901	-0.263
Mof_H 	H 	0.4829	0.3711	0.2929	0.685
Mof_H 	H 	0.3946	0.4182	0.3168	0.045
Mof_C 	C 	0.5174	0.4111	0.2887	-0.113
Mof_H 	H 	0.5805	0.3982	0.29	0.122
Mof_H 	H 	0.4864	0.3666	0.3159	-0.553
Mof_O 	O 	0.1217	0.0551	0.94249	-0.454
Mof_C 	C 	0.2639	0.1708	0.9387	0.064
Mof_H 	H 	0.2436	0.1478	0.8968	0.006
Mof_C 	C 	0.0513	0.0744	0.7901	-0.331
Mof_H 	H 	0.0171	0.1289	0.7929	3.114
Mof_H 	H 	0.1054	0.0818	0.8168	0.141
Mof_C 	C 	0.9826	0.0889	0.7887	-0.943
Mof_H 	H 	0.9195	0.1018	0.79	0.502
Mof_H 	H 	0.0136	0.1334	0.8159	-2.587
Mof_O 	O 	0.6217	0.5551	0.44249	-0.428
Mof_C 	C 	0.7639	0.6708	0.4387	0.011
Mof_H 	H 	0.7436	0.6478	0.3968	0.054
Mof_C 	C 	0.5513	0.5744	0.2901	-0.264
Mof_H 	H 	0.5171	0.6289	0.2929	0.686
Mof_H 	H 	0.6054	0.5818	0.3168	0.05
Mof_C 	C 	0.4826	0.5889	0.2887	-0.117
Mof_H 	H 	0.4195	0.6018	0.29	0.122
Mof_H 	H 	0.5136	0.6334	0.3159	-0.543
Mof_O 	O 	0.0551	0.1217	0.55751	-0.502
Mof_C 	C 	0.1708	0.2639	0.5613	0.012
Mof_H 	H 	0.1478	0.2436	0.6032	0.016
Mof_C 	C 	0.0744	0.0513	0.7099	-0.321
Mof_H 	H 	0.1289	0.0171	0.7071	3.1
Mof_H 	H 	0.0818	0.1054	0.6832	0.14
Mof_C 	C 	0.0889	0.9826	0.7113	-0.941
Mof_H 	H 	0.1018	0.9195	0.71	0.498
Mof_H 	H 	0.1334	0.0136	0.6841	-2.578
Mof_O 	O 	0.5551	0.6217	0.05751	-0.423
Mof_C 	C 	0.6708	0.7639	0.0613	0.014
Mof_H 	H 	0.6478	0.7436	0.1032	0.051
Mof_C 	C 	0.5744	0.5513	0.2099	-0.26
Mof_H 	H 	0.6289	0.5171	0.2071	0.669
Mof_H 	H 	0.5818	0.6054	0.1832	0.047
Mof_C 	C 	0.5889	0.4826	0.2113	-0.111
Mof_H 	H 	0.6018	0.4195	0.21	0.12
Mof_H 	H 	0.6334	0.5136	0.1841	-0.531
Mof_O 	O 	0.9449	0.8783	0.55751	-0.377
Mof_C 	C 	0.8292	0.7361	0.5613	-0.031
Mof_H 	H 	0.8522	0.7564	0.6032	0.079
Mof_C 	C 	0.9256	0.9487	0.7099	0.127
Mof_H 	H 	0.8711	0.9829	0.7071	-2.84
Mof_H 	H 	0.9182	0.8946	0.6832	-0.178
Mof_C 	C 	0.9111	0.0174	0.7113	1.04
Mof_H 	H 	0.8982	0.0805	0.71	-0.605
Mof_H 	H 	0.8666	0.9864	0.6841	2.385
Mof_O 	O 	0.4449	0.3783	0.05751	-0.428
Mof_C 	C 	0.3292	0.2361	0.0613	-0.047
Mof_H 	H 	0.3522	0.2564	0.1032	0.049
Mof_C 	C 	0.4256	0.4487	0.2099	-0.26
Mof_H 	H 	0.3711	0.4829	0.2071	0.668
Mof_H 	H 	0.4182	0.3946	0.1832	0.042
Mof_C 	C 	0.4111	0.5174	0.2113	-0.106
Mof_H 	H 	0.3982	0.5805	0.21	0.121
Mof_H 	H 	0.3666	0.4864	0.1841	-0.542
Mof_O 	O 	0.1217	0.9449	0.55751	-0.295
Mof_C 	C 	0.2639	0.8292	0.5613	-0.082
Mof_H 	H 	0.2436	0.8522	0.6032	0.103
Mof_C 	C 	0.0513	0.9256	0.7099	-0.518
Mof_H 	H 	0.0171	0.8711	0.7071	0.471
Mof_H 	H 	0.1054	0.9182	0.6832	0.138
Mof_C 	C 	0.9826	0.9111	0.7113	0.376
Mof_H 	H 	0.9195	0.8982	0.71	0.164
Mof_H 	H 	0.0136	0.8666	0.6841	-0.441
Mof_O 	O 	0.6217	0.4449	0.05751	-0.429
Mof_C 	C 	0.7639	0.3292	0.0613	0.046
Mof_H 	H 	0.7436	0.3522	0.1032	0.034
Mof_C 	C 	0.5513	0.4256	0.2099	-0.257
Mof_H 	H 	0.5171	0.3711	0.2071	0.665
Mof_H 	H 	0.6054	0.4182	0.1832	0.045
Mof_C 	C 	0.4826	0.4111	0.2113	-0.107
Mof_H 	H 	0.4195	0.3982	0.21	0.117
Mof_H 	H 	0.5136	0.3666	0.1841	-0.538
Mof_O 	O 	0.8783	0.0551	0.55751	-0.581
Mof_C 	C 	0.7361	0.1708	0.5613	0.065
Mof_H 	H 	0.7564	0.1478	0.6032	-0.007
Mof_C 	C 	0.9487	0.0744	0.7099	0.575
Mof_H 	H 	0.9829	0.1289	0.7071	-0.264
Mof_H 	H 	0.8946	0.0818	0.6832	-0.021
Mof_C 	C 	0.0174	0.0889	0.7113	-0.492
Mof_H 	H 	0.0805	0.1018	0.71	0.052
Mof_H 	H 	0.9864	0.1334	0.6841	0.327
Mof_O 	O 	0.3783	0.5551	0.05751	-0.423
Mof_C 	C 	0.2361	0.6708	0.0613	-0.079
Mof_H 	H 	0.2564	0.6478	0.1032	0.067
Mof_C 	C 	0.4487	0.5744	0.2099	-0.264
Mof_H 	H 	0.4829	0.6289	0.2071	0.673
Mof_H 	H 	0.3946	0.5818	0.1832	0.044
Mof_C 	C 	0.5174	0.5889	0.2113	-0.109
Mof_H 	H 	0.5805	0.6018	0.21	0.122
Mof_H 	H 	0.4864	0.6334	0.1841	-0.534
Mof_Zn	Zn	-3.55558e-34	0	0.07668	1.141
Mof_N 	N 	8.79076e-34	0	0.1835	-0.324
Mof_Zn	Zn	0.5	0.5	0.57668	1.23
Mof_N 	N 	0.5	0.5	0.6835	0.023
Mof_Zn	Zn	2.02796e-33	0	0.42332	1.146
Mof_N 	N 	-1.37538e-33	0	0.3165	-0.317
Mof_Zn	Zn	0.5	0.5	0.92332	1.232
Mof_N 	N 	0.5	0.5	0.8165	0.027
Mof_Zn	Zn	4.42326e-33	0	0.92332	1.148
Mof_N 	N 	3.91153e-33	0	0.8165	-0.321
Mof_Zn	Zn	0.5	0.5	0.42332	1.231
Mof_N 	N 	0.5	0.5	0.3165	0.03
Mof_Zn	Zn	2.76265e-33	0	0.57668	1.145
Mof_N 	N 	3.27438e-33	0	0.6835	-0.324
Mof_Zn	Zn	0.5	0.5	0.07668	1.225
Mof_N 	N 	0.5	0.5	0.1835	0.024
Mof_C 	C 	0.1403	0.7707	-0	-0.233
Mof_C 	C 	0.0783	0.848	-0	0.421
Mof_C 	C 	0.6403	0.2707	0.5	-0.028
Mof_C 	C 	0.5783	0.348	0.5	0.36
Mof_C 	C 	0.8597	0.2293	-0	-0.028
Mof_C 	C 	0.9217	0.152	-0	0.247
Mof_C 	C 	0.3597	0.7293	0.5	-0.111
Mof_C 	C 	0.4217	0.652	0.5	0.393
Mof_C 	C 	0.2293	0.1403	-0	-0.169
Mof_C 	C 	0.152	0.0783	-0	0.346
Mof_C 	C 	0.7293	0.6403	0.5	-0.08
Mof_C 	C 	0.652	0.5783	0.5	0.386
Mof_C 	C 	0.7707	0.8597	-0	-0.091
Mof_C 	C 	0.848	0.9217	-0	0.321
Mof_C 	C 	0.2707	0.3597	0.5	-0.059
Mof_C 	C 	0.348	0.4217	0.5	0.367
Mof_C 	C 	0.8597	0.7707	0.5	-0.043
Mof_C 	C 	0.9217	0.848	0.5	0.372
Mof_C 	C 	0.3597	0.2707	-0	-0.106
Mof_C 	C 	0.4217	0.348	-0	0.316
Mof_C 	C 	0.1403	0.2293	0.5	-0.123
Mof_C 	C 	0.0783	0.152	0.5	0.395
Mof_C 	C 	0.6403	0.7293	-0	-0.128
Mof_C 	C 	0.5783	0.652	-0	0.334
Mof_C 	C 	0.7707	0.1403	0.5	-0.186
Mof_C 	C 	0.848	0.0783	0.5	0.472
Mof_C 	C 	0.2707	0.6403	-0	-0.075
Mof_C 	C 	0.348	0.5783	-0	0.308
Mof_C 	C 	0.2293	0.8597	0.5	0.019
Mof_C 	C 	0.152	0.9217	0.5	0.297
Mof_C 	C 	0.7293	0.3597	-0	-0.158
Mof_C 	C 	0.652	0.4217	-0	0.341
_end
