data_functionalizedCrystal
_audit_creation_method	'EQeq! by Chris Wilmer'
_symmetry_space_group_name_H-M	'P1'
_symmetry_Int_Tables_number	1
_symmetry_cell_setting	triclinic
loop_
_symmetry_equiv_pos_as_xyz
  x,y,z
_cell_length_a	33.2781
_cell_length_b	33.2781
_cell_length_c	13.5625
_cell_angle_alpha	90
_cell_angle_beta	90
_cell_angle_gamma	120
loop_
_atom_site_label
_atom_site_type_symbol
_atom_site_fract_x
_atom_site_fract_y
_atom_site_fract_z
_atom_site_charge
Mof_Zn	Zn	0.34072	0.96563	0.7542	1.237
Mof_Zn	Zn	0.33685	0.11047	0.63037	1.23
Mof_Zn	Zn	0.17005	0.83178	0.99776	1.237
Mof_P 	P 	0.29793	0.00495	0.59915	0.329
Mof_P 	P 	0.23983	0.89436	0.82648	0.471
Mof_P 	P 	0.40202	0.14648	0.44576	0.456
Mof_P 	P 	0.38829	0.18419	0.80105	0.468
Mof_O 	O 	0.31473	0.97261	0.63204	-0.398
Mof_O 	O 	0.31334	0.04548	0.66704	-0.444
Mof_O 	O 	0.30913	0.01878	0.4916	-0.435
Mof_O 	O 	0.2918	0.91862	0.8335	-0.431
Mof_O 	O 	0.22033	0.85859	0.90693	-0.463
Mof_O 	O 	0.22363	0.87557	0.72472	-0.443
Mof_O 	O 	0.39299	0.13362	0.55454	-0.471
Mof_O 	O 	0.38206	0.17575	0.41056	-0.45
Mof_O 	O 	0.38819	0.10488	0.38063	-0.461
Mof_O 	O 	0.35499	0.13699	0.76144	-0.459
Mof_O 	O 	0.38223	0.22167	0.75592	-0.49
Mof_O 	O 	0.38872	0.18485	0.91126	-0.429
Mof_H 	H 	0.2461	0.9746	0.6033	-0.794
Mof_H 	H 	0.225	0.929	0.8459	-0.393
Mof_H 	H 	0.4455	0.1686	0.4361	-0.03
Mof_H 	H 	0.4346	0.1977	0.7778	-0.014
Mof_O 	O 	0.2498	0.9863	0.606	0.856
Mof_O 	O 	0.2239	0.9288	0.8476	0.33
Mof_Zn	Zn	0.00739	0.29896	0.08753	1.236
Mof_Zn	Zn	0.00352	0.4438	0.96371	1.229
Mof_Zn	Zn	0.83672	0.16512	0.33109	1.237
Mof_P 	P 	0.9646	0.33828	0.93248	0.328
Mof_P 	P 	0.9065	0.22769	0.15981	0.47
Mof_P 	P 	0.06869	0.47981	0.77909	0.455
Mof_P 	P 	0.05496	0.51752	0.13438	0.467
Mof_O 	O 	0.9814	0.30594	0.96537	-0.398
Mof_O 	O 	0.98001	0.37881	0.00037	-0.446
Mof_O 	O 	0.9758	0.35211	0.82493	-0.436
Mof_O 	O 	0.95847	0.25195	0.16683	-0.432
Mof_O 	O 	0.887	0.19192	0.24026	-0.464
Mof_O 	O 	0.8903	0.2089	0.05805	-0.443
Mof_O 	O 	0.05966	0.46695	0.88787	-0.471
Mof_O 	O 	0.04873	0.50908	0.74389	-0.45
Mof_O 	O 	0.05486	0.43821	0.71396	-0.461
Mof_O 	O 	0.02166	0.47032	0.09477	-0.458
Mof_O 	O 	0.0489	0.555	0.08925	-0.49
Mof_O 	O 	0.05539	0.51818	0.24459	-0.429
Mof_H 	H 	0.91277	0.30793	0.93663	-0.794
Mof_H 	H 	0.89167	0.26233	0.17923	-0.393
Mof_H 	H 	0.11217	0.50193	0.76943	-0.03
Mof_H 	H 	0.10127	0.53103	0.11113	-0.014
Mof_O 	O 	0.91647	0.31963	0.93933	0.856
Mof_O 	O 	0.89057	0.26213	0.18093	0.33
Mof_Zn	Zn	0.67406	0.6323	0.42086	1.236
Mof_Zn	Zn	0.67019	0.77713	0.29704	1.229
Mof_Zn	Zn	0.50338	0.49845	0.66443	1.237
Mof_P 	P 	0.63126	0.67162	0.26582	0.327
Mof_P 	P 	0.57317	0.56102	0.49315	0.471
Mof_P 	P 	0.73535	0.81315	0.11243	0.455
Mof_P 	P 	0.72162	0.85086	0.46772	0.467
Mof_O 	O 	0.64806	0.63928	0.29871	-0.399
Mof_O 	O 	0.64667	0.71215	0.33371	-0.445
Mof_O 	O 	0.64246	0.68545	0.15827	-0.436
Mof_O 	O 	0.62513	0.58529	0.50017	-0.432
Mof_O 	O 	0.55366	0.52526	0.5736	-0.464
Mof_O 	O 	0.55696	0.54224	0.39139	-0.443
Mof_O 	O 	0.72632	0.80029	0.22121	-0.471
Mof_O 	O 	0.71539	0.84242	0.07723	-0.45
Mof_O 	O 	0.72152	0.77155	0.0473	-0.46
Mof_O 	O 	0.68832	0.80366	0.42811	-0.459
Mof_O 	O 	0.71556	0.88834	0.42259	-0.49
Mof_O 	O 	0.72205	0.85152	0.57793	-0.429
Mof_H 	H 	0.57943	0.64127	0.26997	-0.794
Mof_H 	H 	0.55833	0.59567	0.51257	-0.392
Mof_H 	H 	0.77883	0.83527	0.10277	-0.03
Mof_H 	H 	0.76793	0.86437	0.44447	-0.014
Mof_O 	O 	0.58313	0.65297	0.27267	0.856
Mof_O 	O 	0.55723	0.59547	0.51427	0.33
Mof_Zn	Zn	0.03437	0.37509	0.7542	1.236
Mof_Zn	Zn	0.88953	0.22639	0.63037	1.229
Mof_Zn	Zn	0.16822	0.33827	0.99776	1.237
Mof_P 	P 	0.99505	0.29298	0.59915	0.328
Mof_P 	P 	0.10564	0.34547	0.82648	0.47
Mof_P 	P 	0.85352	0.25554	0.44576	0.455
Mof_P 	P 	0.81581	0.2041	0.80105	0.467
Mof_O 	O 	0.02739	0.34212	0.63204	-0.399
Mof_O 	O 	0.95452	0.26786	0.66704	-0.444
Mof_O 	O 	0.98122	0.29035	0.4916	-0.436
Mof_O 	O 	0.08138	0.37318	0.8335	-0.432
Mof_O 	O 	0.14141	0.36174	0.90693	-0.464
Mof_O 	O 	0.12443	0.34806	0.72472	-0.443
Mof_O 	O 	0.86638	0.25937	0.55454	-0.471
Mof_O 	O 	0.82425	0.20631	0.41056	-0.45
Mof_O 	O 	0.89512	0.28331	0.38063	-0.461
Mof_O 	O 	0.86301	0.218	0.76144	-0.459
Mof_O 	O 	0.77833	0.16056	0.75592	-0.49
Mof_O 	O 	0.81515	0.20387	0.91126	-0.429
Mof_H 	H 	0.0254	0.2715	0.6033	-0.795
Mof_H 	H 	0.071	0.296	0.8459	-0.393
Mof_H 	H 	0.8314	0.2769	0.4361	-0.03
Mof_H 	H 	0.8023	0.2369	0.7778	-0.014
Mof_O 	O 	0.0137	0.2635	0.606	0.856
Mof_O 	O 	0.0712	0.2951	0.8476	0.33
Mof_Zn	Zn	0.70104	0.70843	0.08753	1.236
Mof_Zn	Zn	0.5562	0.55972	0.96371	1.229
Mof_Zn	Zn	0.83488	0.6716	0.33109	1.237
Mof_P 	P 	0.66172	0.62631	0.93248	0.327
Mof_P 	P 	0.77231	0.67881	0.15981	0.47
Mof_P 	P 	0.52019	0.58887	0.77909	0.455
Mof_P 	P 	0.48248	0.53743	0.13438	0.467
Mof_O 	O 	0.69406	0.67545	0.96537	-0.399
Mof_O 	O 	0.62119	0.60119	0.00037	-0.445
Mof_O 	O 	0.64789	0.62368	0.82493	-0.436
Mof_O 	O 	0.74805	0.70651	0.16683	-0.432
Mof_O 	O 	0.80808	0.69507	0.24026	-0.464
Mof_O 	O 	0.7911	0.68139	0.05805	-0.443
Mof_O 	O 	0.53305	0.5927	0.88787	-0.471
Mof_O 	O 	0.49092	0.53964	0.74389	-0.45
Mof_O 	O 	0.56179	0.61664	0.71396	-0.461
Mof_O 	O 	0.52968	0.55133	0.09477	-0.459
Mof_O 	O 	0.445	0.49389	0.08925	-0.49
Mof_O 	O 	0.48182	0.5372	0.24459	-0.429
Mof_H 	H 	0.69207	0.60483	0.93663	-0.794
Mof_H 	H 	0.73767	0.62933	0.17923	-0.393
Mof_H 	H 	0.49807	0.61023	0.76943	-0.03
Mof_H 	H 	0.46897	0.57023	0.11113	-0.014
Mof_O 	O 	0.68037	0.59683	0.93933	0.856
Mof_O 	O 	0.73787	0.62843	0.18093	0.33
Mof_Zn	Zn	0.3677	0.04176	0.42086	1.236
Mof_Zn	Zn	0.22287	0.89306	0.29704	1.229
Mof_Zn	Zn	0.50155	0.00493	0.66443	1.237
Mof_P 	P 	0.32838	0.95965	0.26582	0.328
Mof_P 	P 	0.43898	0.01214	0.49315	0.47
Mof_P 	P 	0.18685	0.92221	0.11243	0.455
Mof_P 	P 	0.14914	0.87077	0.46772	0.467
Mof_O 	O 	0.36072	0.00879	0.29871	-0.399
Mof_O 	O 	0.28785	0.93453	0.33371	-0.445
Mof_O 	O 	0.31455	0.95702	0.15827	-0.436
Mof_O 	O 	0.41471	0.03985	0.50017	-0.432
Mof_O 	O 	0.47474	0.02841	0.5736	-0.463
Mof_O 	O 	0.45776	0.01473	0.39139	-0.443
Mof_O 	O 	0.19971	0.92604	0.22121	-0.47
Mof_O 	O 	0.15758	0.87298	0.07723	-0.449
Mof_O 	O 	0.22845	0.94998	0.0473	-0.46
Mof_O 	O 	0.19634	0.88467	0.42811	-0.459
Mof_O 	O 	0.11166	0.82723	0.42259	-0.49
Mof_O 	O 	0.14848	0.87054	0.57793	-0.429
Mof_H 	H 	0.35873	0.93817	0.26997	-0.794
Mof_H 	H 	0.40433	0.96267	0.51257	-0.392
Mof_H 	H 	0.16473	0.94357	0.10277	-0.029
Mof_H 	H 	0.13563	0.90357	0.44447	-0.014
Mof_O 	O 	0.34703	0.93017	0.27267	0.856
Mof_O 	O 	0.40453	0.96177	0.51427	0.33
Mof_Zn	Zn	0.62491	0.65928	0.7542	1.236
Mof_Zn	Zn	0.77361	0.66315	0.63037	1.229
Mof_Zn	Zn	0.66173	0.82995	0.99776	1.237
Mof_P 	P 	0.70702	0.70207	0.59915	0.327
Mof_P 	P 	0.65453	0.76017	0.82648	0.47
Mof_P 	P 	0.74446	0.59798	0.44576	0.455
Mof_P 	P 	0.7959	0.61171	0.80105	0.467
Mof_O 	O 	0.65788	0.68527	0.63204	-0.399
Mof_O 	O 	0.73214	0.68666	0.66704	-0.445
Mof_O 	O 	0.70965	0.69087	0.4916	-0.436
Mof_O 	O 	0.62682	0.7082	0.8335	-0.432
Mof_O 	O 	0.63826	0.77967	0.90693	-0.464
Mof_O 	O 	0.65194	0.77637	0.72472	-0.443
Mof_O 	O 	0.74063	0.60701	0.55454	-0.471
Mof_O 	O 	0.79369	0.61794	0.41056	-0.45
Mof_O 	O 	0.71669	0.61181	0.38063	-0.461
Mof_O 	O 	0.782	0.64501	0.76144	-0.459
Mof_O 	O 	0.83944	0.61777	0.75592	-0.49
Mof_O 	O 	0.79613	0.61128	0.91126	-0.429
Mof_H 	H 	0.7285	0.7539	0.6033	-0.794
Mof_H 	H 	0.704	0.775	0.8459	-0.392
Mof_H 	H 	0.7231	0.5545	0.4361	-0.03
Mof_H 	H 	0.7631	0.5654	0.7778	-0.014
Mof_O 	O 	0.7365	0.7502	0.606	0.856
Mof_O 	O 	0.7049	0.7761	0.8476	0.33
Mof_Zn	Zn	0.29157	0.99261	0.08753	1.236
Mof_Zn	Zn	0.44028	0.99648	0.96371	1.229
Mof_Zn	Zn	0.3284	0.16328	0.33109	1.237
Mof_P 	P 	0.37369	0.0354	0.93248	0.328
Mof_P 	P 	0.32119	0.0935	0.15981	0.47
Mof_P 	P 	0.41113	0.93131	0.77909	0.455
Mof_P 	P 	0.46257	0.94504	0.13438	0.467
Mof_O 	O 	0.32455	0.0186	0.96537	-0.399
Mof_O 	O 	0.39881	0.01999	0.00037	-0.445
Mof_O 	O 	0.37632	0.0242	0.82493	-0.436
Mof_O 	O 	0.29349	0.04153	0.16683	-0.432
Mof_O 	O 	0.30493	0.113	0.24026	-0.464
Mof_O 	O 	0.31861	0.1097	0.05805	-0.443
Mof_O 	O 	0.4073	0.94034	0.88787	-0.471
Mof_O 	O 	0.46036	0.95127	0.74389	-0.45
Mof_O 	O 	0.38336	0.94514	0.71396	-0.461
Mof_O 	O 	0.44867	0.97834	0.09477	-0.458
Mof_O 	O 	0.50611	0.9511	0.08925	-0.49
Mof_O 	O 	0.4628	0.94461	0.24459	-0.429
Mof_H 	H 	0.39517	0.08723	0.93663	-0.794
Mof_H 	H 	0.37067	0.10833	0.17923	-0.393
Mof_H 	H 	0.38977	0.88783	0.76943	-0.03
Mof_H 	H 	0.42977	0.89873	0.11113	-0.014
Mof_O 	O 	0.40317	0.08353	0.93933	0.856
Mof_O 	O 	0.37157	0.10943	0.18093	0.33
Mof_Zn	Zn	0.95824	0.32594	0.42086	1.236
Mof_Zn	Zn	0.10694	0.32981	0.29704	1.229
Mof_Zn	Zn	0.99507	0.49662	0.66443	1.237
Mof_P 	P 	0.04035	0.36874	0.26582	0.328
Mof_P 	P 	0.98786	0.42683	0.49315	0.471
Mof_P 	P 	0.07779	0.26465	0.11243	0.455
Mof_P 	P 	0.12923	0.27838	0.46772	0.467
Mof_O 	O 	0.99121	0.35194	0.29871	-0.399
Mof_O 	O 	0.06547	0.35333	0.33371	-0.445
Mof_O 	O 	0.04298	0.35754	0.15827	-0.436
Mof_O 	O 	0.96015	0.37487	0.50017	-0.432
Mof_O 	O 	0.97159	0.44634	0.5736	-0.463
Mof_O 	O 	0.98527	0.44304	0.39139	-0.443
Mof_O 	O 	0.07396	0.27368	0.22121	-0.471
Mof_O 	O 	0.12702	0.28461	0.07723	-0.45
Mof_O 	O 	0.05002	0.27848	0.0473	-0.46
Mof_O 	O 	0.11533	0.31168	0.42811	-0.459
Mof_O 	O 	0.17277	0.28444	0.42259	-0.49
Mof_O 	O 	0.12946	0.27795	0.57793	-0.429
Mof_H 	H 	0.06183	0.42057	0.26997	-0.794
Mof_H 	H 	0.03733	0.44167	0.51257	-0.392
Mof_H 	H 	0.05643	0.22117	0.10277	-0.03
Mof_H 	H 	0.09643	0.23207	0.44447	-0.014
Mof_O 	O 	0.06983	0.41687	0.27267	0.856
Mof_O 	O 	0.03823	0.44277	0.51427	0.33
Mof_Zn	Zn	0.65928	0.03437	0.2458	1.236
Mof_Zn	Zn	0.66314	0.88953	0.36963	1.229
Mof_Zn	Zn	0.82995	0.16822	0.00224	1.236
Mof_P 	P 	0.70207	0.99505	0.40085	0.328
Mof_P 	P 	0.76017	0.10564	0.17352	0.47
Mof_P 	P 	0.59798	0.85352	0.55424	0.455
Mof_P 	P 	0.61171	0.81581	0.19895	0.467
Mof_O 	O 	0.68527	0.02739	0.36796	-0.399
Mof_O 	O 	0.68666	0.95452	0.33296	-0.445
Mof_O 	O 	0.69087	0.98122	0.5084	-0.436
Mof_O 	O 	0.7082	0.08138	0.1665	-0.432
Mof_O 	O 	0.77967	0.14141	0.09307	-0.464
Mof_O 	O 	0.77637	0.12443	0.27528	-0.443
Mof_O 	O 	0.60701	0.86638	0.44546	-0.471
Mof_O 	O 	0.61794	0.82425	0.58944	-0.45
Mof_O 	O 	0.61181	0.89512	0.61937	-0.461
Mof_O 	O 	0.64501	0.86301	0.23856	-0.459
Mof_O 	O 	0.61777	0.77833	0.24408	-0.49
Mof_O 	O 	0.61128	0.81515	0.08874	-0.429
Mof_H 	H 	0.7539	0.0254	0.3967	-0.794
Mof_H 	H 	0.775	0.071	0.1541	-0.393
Mof_H 	H 	0.5545	0.8314	0.5639	-0.03
Mof_H 	H 	0.5654	0.8023	0.2222	-0.014
Mof_O 	O 	0.7502	0.0137	0.394	0.856
Mof_O 	O 	0.7761	0.0712	0.1524	0.33
Mof_Zn	Zn	0.32594	0.3677	0.57914	1.236
Mof_Zn	Zn	0.32981	0.22287	0.70296	1.229
Mof_Zn	Zn	0.49662	0.50155	0.33557	1.237
Mof_P 	P 	0.36874	0.32838	0.73418	0.327
Mof_P 	P 	0.42683	0.43898	0.50685	0.471
Mof_P 	P 	0.26465	0.18685	0.88757	0.455
Mof_P 	P 	0.27838	0.14914	0.53228	0.467
Mof_O 	O 	0.35194	0.36072	0.70129	-0.399
Mof_O 	O 	0.35333	0.28785	0.66629	-0.445
Mof_O 	O 	0.35754	0.31455	0.84173	-0.436
Mof_O 	O 	0.37487	0.41471	0.49983	-0.432
Mof_O 	O 	0.44634	0.47474	0.4264	-0.464
Mof_O 	O 	0.44304	0.45776	0.60861	-0.443
Mof_O 	O 	0.27368	0.19971	0.77879	-0.471
Mof_O 	O 	0.28461	0.15758	0.92277	-0.45
Mof_O 	O 	0.27848	0.22845	0.9527	-0.46
Mof_O 	O 	0.31168	0.19634	0.57189	-0.459
Mof_O 	O 	0.28444	0.11166	0.57741	-0.49
Mof_O 	O 	0.27795	0.14848	0.42207	-0.429
Mof_H 	H 	0.42057	0.35873	0.73003	-0.794
Mof_H 	H 	0.44167	0.40433	0.48743	-0.392
Mof_H 	H 	0.22117	0.16473	0.89723	-0.03
Mof_H 	H 	0.23207	0.13563	0.55553	-0.014
Mof_O 	O 	0.41687	0.34703	0.72733	0.856
Mof_O 	O 	0.44277	0.40453	0.48573	0.33
Mof_Zn	Zn	0.99261	0.70104	0.91247	1.236
Mof_Zn	Zn	0.99648	0.5562	0.03629	1.229
Mof_Zn	Zn	0.16328	0.83488	0.66891	1.237
Mof_P 	P 	0.0354	0.66172	0.06752	0.328
Mof_P 	P 	0.0935	0.77231	0.84019	0.47
Mof_P 	P 	0.93131	0.52019	0.22091	0.455
Mof_P 	P 	0.94504	0.48248	0.86562	0.467
Mof_O 	O 	0.0186	0.69406	0.03463	-0.398
Mof_O 	O 	0.01999	0.62119	0.99963	-0.446
Mof_O 	O 	0.0242	0.64789	0.17507	-0.436
Mof_O 	O 	0.04153	0.74805	0.83317	-0.432
Mof_O 	O 	0.113	0.80808	0.75974	-0.464
Mof_O 	O 	0.1097	0.7911	0.94195	-0.443
Mof_O 	O 	0.94034	0.53305	0.11213	-0.471
Mof_O 	O 	0.95127	0.49092	0.25611	-0.45
Mof_O 	O 	0.94514	0.56179	0.28604	-0.461
Mof_O 	O 	0.97834	0.52968	0.90523	-0.458
Mof_O 	O 	0.9511	0.445	0.91075	-0.49
Mof_O 	O 	0.94461	0.48182	0.75541	-0.429
Mof_H 	H 	0.08723	0.69207	0.06337	-0.794
Mof_H 	H 	0.10833	0.73767	0.82077	-0.393
Mof_H 	H 	0.88783	0.49807	0.23057	-0.03
Mof_H 	H 	0.89873	0.46897	0.88887	-0.014
Mof_O 	O 	0.08353	0.68037	0.06067	0.856
Mof_O 	O 	0.10943	0.73787	0.81907	0.33
Mof_Zn	Zn	0.96563	0.62491	0.2458	1.236
Mof_Zn	Zn	0.11047	0.77361	0.36963	1.229
Mof_Zn	Zn	0.83178	0.66173	0.00224	1.237
Mof_P 	P 	0.00495	0.70702	0.40085	0.328
Mof_P 	P 	0.89436	0.65453	0.17352	0.47
Mof_P 	P 	0.14648	0.74446	0.55424	0.455
Mof_P 	P 	0.18419	0.7959	0.19895	0.467
Mof_O 	O 	0.97261	0.65788	0.36796	-0.399
Mof_O 	O 	0.04548	0.73214	0.33296	-0.444
Mof_O 	O 	0.01878	0.70965	0.5084	-0.436
Mof_O 	O 	0.91862	0.62682	0.1665	-0.432
Mof_O 	O 	0.85859	0.63826	0.09307	-0.464
Mof_O 	O 	0.87557	0.65194	0.27528	-0.443
Mof_O 	O 	0.13362	0.74063	0.44546	-0.471
Mof_O 	O 	0.17575	0.79369	0.58944	-0.45
Mof_O 	O 	0.10488	0.71669	0.61937	-0.461
Mof_O 	O 	0.13699	0.782	0.23856	-0.459
Mof_O 	O 	0.22167	0.83944	0.24408	-0.49
Mof_O 	O 	0.18485	0.79613	0.08874	-0.429
Mof_H 	H 	0.9746	0.7285	0.3967	-0.795
Mof_H 	H 	0.929	0.704	0.1541	-0.393
Mof_H 	H 	0.1686	0.7231	0.5639	-0.03
Mof_H 	H 	0.1977	0.7631	0.2222	-0.014
Mof_O 	O 	0.9863	0.7365	0.394	0.856
Mof_O 	O 	0.9288	0.7049	0.1524	0.33
Mof_Zn	Zn	0.6323	0.95824	0.57914	1.236
Mof_Zn	Zn	0.77713	0.10694	0.70296	1.229
Mof_Zn	Zn	0.49845	0.99507	0.33557	1.237
Mof_P 	P 	0.67162	0.04035	0.73418	0.328
Mof_P 	P 	0.56102	0.98786	0.50685	0.47
Mof_P 	P 	0.81315	0.07779	0.88757	0.455
Mof_P 	P 	0.85086	0.12923	0.53228	0.467
Mof_O 	O 	0.63928	0.99121	0.70129	-0.399
Mof_O 	O 	0.71215	0.06547	0.66629	-0.445
Mof_O 	O 	0.68545	0.04298	0.84173	-0.436
Mof_O 	O 	0.58529	0.96015	0.49983	-0.432
Mof_O 	O 	0.52526	0.97159	0.4264	-0.463
Mof_O 	O 	0.54224	0.98527	0.60861	-0.443
Mof_O 	O 	0.80029	0.07396	0.77879	-0.47
Mof_O 	O 	0.84242	0.12702	0.92277	-0.449
Mof_O 	O 	0.77155	0.05002	0.9527	-0.46
Mof_O 	O 	0.80366	0.11533	0.57189	-0.459
Mof_O 	O 	0.88834	0.17277	0.57741	-0.49
Mof_O 	O 	0.85152	0.12946	0.42207	-0.429
Mof_H 	H 	0.64127	0.06183	0.73003	-0.794
Mof_H 	H 	0.59567	0.03733	0.48743	-0.392
Mof_H 	H 	0.83527	0.05643	0.89723	-0.029
Mof_H 	H 	0.86437	0.09643	0.55553	-0.014
Mof_O 	O 	0.65297	0.06983	0.72733	0.856
Mof_O 	O 	0.59547	0.03823	0.48573	0.33
Mof_Zn	Zn	0.29896	0.29157	0.91247	1.236
Mof_Zn	Zn	0.4438	0.44028	0.03629	1.229
Mof_Zn	Zn	0.16512	0.3284	0.66891	1.237
Mof_P 	P 	0.33828	0.37369	0.06752	0.327
Mof_P 	P 	0.22769	0.32119	0.84019	0.47
Mof_P 	P 	0.47981	0.41113	0.22091	0.455
Mof_P 	P 	0.51752	0.46257	0.86562	0.467
Mof_O 	O 	0.30594	0.32455	0.03463	-0.399
Mof_O 	O 	0.37881	0.39881	0.99963	-0.445
Mof_O 	O 	0.35211	0.37632	0.17507	-0.436
Mof_O 	O 	0.25195	0.29349	0.83317	-0.432
Mof_O 	O 	0.19192	0.30493	0.75974	-0.464
Mof_O 	O 	0.2089	0.31861	0.94195	-0.443
Mof_O 	O 	0.46695	0.4073	0.11213	-0.471
Mof_O 	O 	0.50908	0.46036	0.25611	-0.45
Mof_O 	O 	0.43821	0.38336	0.28604	-0.461
Mof_O 	O 	0.47032	0.44867	0.90523	-0.459
Mof_O 	O 	0.555	0.50611	0.91075	-0.49
Mof_O 	O 	0.51818	0.4628	0.75541	-0.429
Mof_H 	H 	0.30793	0.39517	0.06337	-0.794
Mof_H 	H 	0.26233	0.37067	0.82077	-0.393
Mof_H 	H 	0.50193	0.38977	0.23057	-0.03
Mof_H 	H 	0.53103	0.42977	0.88887	-0.014
Mof_O 	O 	0.31963	0.40317	0.06067	0.856
Mof_O 	O 	0.26213	0.37157	0.81907	0.33
Mof_Zn	Zn	0.37509	0.34072	0.2458	1.236
Mof_Zn	Zn	0.22639	0.33685	0.36963	1.229
Mof_Zn	Zn	0.33827	0.17005	0.00224	1.237
Mof_P 	P 	0.29298	0.29793	0.40085	0.327
Mof_P 	P 	0.34547	0.23983	0.17352	0.47
Mof_P 	P 	0.25554	0.40202	0.55424	0.455
Mof_P 	P 	0.2041	0.38829	0.19895	0.467
Mof_O 	O 	0.34212	0.31473	0.36796	-0.399
Mof_O 	O 	0.26786	0.31334	0.33296	-0.445
Mof_O 	O 	0.29035	0.30913	0.5084	-0.436
Mof_O 	O 	0.37318	0.2918	0.1665	-0.432
Mof_O 	O 	0.36174	0.22033	0.09307	-0.464
Mof_O 	O 	0.34806	0.22363	0.27528	-0.443
Mof_O 	O 	0.25937	0.39299	0.44546	-0.471
Mof_O 	O 	0.20631	0.38206	0.58944	-0.45
Mof_O 	O 	0.28331	0.38819	0.61937	-0.461
Mof_O 	O 	0.218	0.35499	0.23856	-0.459
Mof_O 	O 	0.16056	0.38223	0.24408	-0.49
Mof_O 	O 	0.20387	0.38872	0.08874	-0.429
Mof_H 	H 	0.2715	0.2461	0.3967	-0.794
Mof_H 	H 	0.296	0.225	0.1541	-0.392
Mof_H 	H 	0.2769	0.4455	0.5639	-0.03
Mof_H 	H 	0.2369	0.4346	0.2222	-0.014
Mof_O 	O 	0.2635	0.2498	0.394	0.856
Mof_O 	O 	0.2951	0.2239	0.1524	0.33
Mof_Zn	Zn	0.04176	0.67406	0.57914	1.236
Mof_Zn	Zn	0.89306	0.67019	0.70296	1.229
Mof_Zn	Zn	0.00493	0.50338	0.33557	1.237
Mof_P 	P 	0.95965	0.63126	0.73418	0.328
Mof_P 	P 	0.01214	0.57317	0.50685	0.471
Mof_P 	P 	0.92221	0.73535	0.88757	0.455
Mof_P 	P 	0.87077	0.72162	0.53228	0.467
Mof_O 	O 	0.00879	0.64806	0.70129	-0.399
Mof_O 	O 	0.93453	0.64667	0.66629	-0.445
Mof_O 	O 	0.95702	0.64246	0.84173	-0.436
Mof_O 	O 	0.03985	0.62513	0.49983	-0.432
Mof_O 	O 	0.02841	0.55366	0.4264	-0.463
Mof_O 	O 	0.01473	0.55696	0.60861	-0.443
Mof_O 	O 	0.92604	0.72632	0.77879	-0.471
Mof_O 	O 	0.87298	0.71539	0.92277	-0.45
Mof_O 	O 	0.94998	0.72152	0.9527	-0.46
Mof_O 	O 	0.88467	0.68832	0.57189	-0.459
Mof_O 	O 	0.82723	0.71556	0.57741	-0.49
Mof_O 	O 	0.87054	0.72205	0.42207	-0.429
Mof_H 	H 	0.93817	0.57943	0.73003	-0.794
Mof_H 	H 	0.96267	0.55833	0.48743	-0.392
Mof_H 	H 	0.94357	0.77883	0.89723	-0.03
Mof_H 	H 	0.90357	0.76793	0.55553	-0.014
Mof_O 	O 	0.93017	0.58313	0.72733	0.856
Mof_O 	O 	0.96177	0.55723	0.48573	0.33
Mof_Zn	Zn	0.70843	0.00739	0.91247	1.236
Mof_Zn	Zn	0.55972	0.00352	0.03629	1.229
Mof_Zn	Zn	0.6716	0.83672	0.66891	1.237
Mof_P 	P 	0.62631	0.9646	0.06752	0.328
Mof_P 	P 	0.67881	0.9065	0.84019	0.47
Mof_P 	P 	0.58887	0.06869	0.22091	0.455
Mof_P 	P 	0.53743	0.05496	0.86562	0.467
Mof_O 	O 	0.67545	0.9814	0.03463	-0.399
Mof_O 	O 	0.60119	0.98001	0.99963	-0.445
Mof_O 	O 	0.62368	0.9758	0.17507	-0.436
Mof_O 	O 	0.70651	0.95847	0.83317	-0.432
Mof_O 	O 	0.69507	0.887	0.75974	-0.464
Mof_O 	O 	0.68139	0.8903	0.94195	-0.443
Mof_O 	O 	0.5927	0.05966	0.11213	-0.471
Mof_O 	O 	0.53964	0.04873	0.25611	-0.45
Mof_O 	O 	0.61664	0.05486	0.28604	-0.461
Mof_O 	O 	0.55133	0.02166	0.90523	-0.458
Mof_O 	O 	0.49389	0.0489	0.91075	-0.49
Mof_O 	O 	0.5372	0.05539	0.75541	-0.429
Mof_H 	H 	0.60483	0.91277	0.06337	-0.794
Mof_H 	H 	0.62933	0.89167	0.82077	-0.393
Mof_H 	H 	0.61023	0.11217	0.23057	-0.03
Mof_H 	H 	0.57023	0.10127	0.88887	-0.014
Mof_O 	O 	0.59683	0.91647	0.06067	0.856
Mof_O 	O 	0.62843	0.89057	0.81907	0.33
_end
