data_functionalizedCrystal
_audit_creation_method	'EQeq! by Chris Wilmer'
_symmetry_space_group_name_H-M	'P1'
_symmetry_Int_Tables_number	1
_symmetry_cell_setting	triclinic
loop_
_symmetry_equiv_pos_as_xyz
  x,y,z
_cell_length_a	23.252
_cell_length_b	13.098
_cell_length_c	20.301
_cell_angle_alpha	90
_cell_angle_beta	114.099
_cell_angle_gamma	90
loop_
_atom_site_label
_atom_site_type_symbol
_atom_site_fract_x
_atom_site_fract_y
_atom_site_fract_z
_atom_site_charge
Mof_Zn	Zn	0.23229	0.29586	0.19195	1.171
Mof_Cu	Cu	0.19689	0.06447	0.50317	0.85
Mof_N 	N 	0.27917	0.3104	0.29803	-0.288
Mof_N 	N 	0.30794	0.3652	0.41163	-0.233
Mof_C 	C 	0.26521	0.3698	0.3433	0.084
Mof_H 	H 	0.2285	0.4111	0.3283	-0.037
Mof_C 	C 	0.35251	0.2979	0.40981	-0.006
Mof_H 	H 	0.3894	0.2779	0.4502	0.013
Mof_C 	C 	0.33535	0.2644	0.34098	-0.012
Mof_H 	H 	0.3582	0.2174	0.3252	0.001
Mof_N 	N 	0.24848	0.421	0.14636	-0.287
Mof_N 	N 	0.27396	0.5206	0.07266	-0.23
Mof_C 	C 	0.26371	0.4257	0.08943	0.08
Mof_H 	H 	0.2669	0.3671	0.0635	-0.036
Mof_C 	C 	0.24885	0.5218	0.1673	-0.006
Mof_H 	H 	0.2395	0.5448	0.2063	-0.011
Mof_C 	C 	0.26467	0.582	0.1231	-0.015
Mof_H 	H 	0.2687	0.6542	0.1261	0.016
Mof_N 	N 	0.14178	0.2769	0.17194	-0.292
Mof_N 	N 	0.05484	0.2644	0.19395	-0.216
Mof_C 	C 	0.11775	0.2702	0.2216	0.079
Mof_H 	H 	0.1432	0.2697	0.272	-0.031
Mof_C 	C 	0.08966	0.2742	0.1075	0.025
Mof_H 	H 	0.0904	0.2772	0.0611	-0.016
Mof_C 	C 	0.03725	0.2667	0.1204	-0.072
Mof_H 	H 	0.9953	0.2634	0.0847	0.058
Mof_N 	N 	0.07594	0.2527	0.34153	-0.231
Mof_N 	N 	0.14811	0.1764	0.4389	-0.237
Mof_C 	C 	0.09751	0.165	0.37641	0.084
Mof_H 	H 	0.0788	0.1006	0.3586	-0.051
Mof_C 	C 	0.15993	0.2794	0.44372	0.002
Mof_H 	H 	0.1932	0.3129	0.4819	-0.014
Mof_C 	C 	0.11564	0.3257	0.38425	-0.013
Mof_H 	H 	0.1129	0.3969	0.3743	0.013
Mof_N 	N 	0.24104	0.947	0.56624	-0.235
Mof_N 	N 	0.25656	0.8201	0.64552	-0.288
Mof_C 	C 	0.21629	0.8876	0.60139	0.081
Mof_H 	H 	0.1737	0.893	0.5955	-0.051
Mof_C 	C 	0.3122	0.8379	0.6381	-0.009
Mof_H 	H 	0.3507	0.8022	0.6625	0.003
Mof_C 	C 	0.30254	0.9151	0.5902	-0.003
Mof_H 	H 	0.3333	0.9427	0.5757	0.012
Mof_H 	H 	0.9711	0.6612	0.2868	0.029
Mof_C 	C 	0.9763	0.5066	0.2851	0.129
Mof_H 	H 	0.9568	0.484	0.3156	-0.024
Mof_C 	C 	0.9856	0.6042	0.2709	-0.228
Mof_H 	H 	0.972	0.6624	0.2886	0.035
Mof_N 	N 	0.9839	0.6068	0.2711	0.095
Mof_Zn	Zn	0.73229	0.79586	0.19195	1.171
Mof_Cu	Cu	0.69689	0.56447	0.50317	0.851
Mof_N 	N 	0.77917	0.8104	0.29803	-0.288
Mof_N 	N 	0.80794	0.8652	0.41163	-0.232
Mof_C 	C 	0.76521	0.8698	0.3433	0.085
Mof_H 	H 	0.7285	0.9111	0.3283	-0.037
Mof_C 	C 	0.85251	0.7979	0.40981	-0.005
Mof_H 	H 	0.8894	0.7779	0.4502	0.016
Mof_C 	C 	0.83535	0.7644	0.34098	-0.011
Mof_H 	H 	0.8582	0.7174	0.3252	0.002
Mof_N 	N 	0.74848	0.921	0.14636	-0.287
Mof_N 	N 	0.77396	0.0206	0.07266	-0.228
Mof_C 	C 	0.76371	0.9257	0.08943	0.078
Mof_H 	H 	0.7669	0.8671	0.0635	-0.036
Mof_C 	C 	0.74885	0.0218	0.1673	-0.003
Mof_H 	H 	0.7395	0.0448	0.2063	-0.011
Mof_C 	C 	0.76467	0.082	0.1231	-0.015
Mof_H 	H 	0.7687	0.1542	0.1261	0.017
Mof_N 	N 	0.64178	0.7769	0.17194	-0.288
Mof_N 	N 	0.55484	0.7644	0.19395	-0.222
Mof_C 	C 	0.61775	0.7702	0.2216	0.079
Mof_H 	H 	0.6432	0.7697	0.272	-0.031
Mof_C 	C 	0.58966	0.7742	0.1075	-0.001
Mof_H 	H 	0.5904	0.7772	0.0611	-0.003
Mof_C 	C 	0.53725	0.7667	0.1204	-0.013
Mof_H 	H 	0.4953	0.7634	0.0847	0.02
Mof_N 	N 	0.57594	0.7527	0.34153	-0.228
Mof_N 	N 	0.64811	0.6764	0.4389	-0.237
Mof_C 	C 	0.59751	0.665	0.37641	0.085
Mof_H 	H 	0.5788	0.6006	0.3586	-0.046
Mof_C 	C 	0.65993	0.7794	0.44372	0.002
Mof_H 	H 	0.6932	0.8129	0.4819	-0.014
Mof_C 	C 	0.61564	0.8257	0.38425	-0.012
Mof_H 	H 	0.6129	0.8969	0.3743	0.015
Mof_N 	N 	0.74104	0.447	0.56624	-0.235
Mof_N 	N 	0.75656	0.3201	0.64552	-0.288
Mof_C 	C 	0.71629	0.3876	0.60139	0.081
Mof_H 	H 	0.6737	0.393	0.5955	-0.049
Mof_C 	C 	0.8122	0.3379	0.6381	-0.009
Mof_H 	H 	0.8507	0.3022	0.6625	0.006
Mof_C 	C 	0.80254	0.4151	0.5902	-0.003
Mof_H 	H 	0.8333	0.4427	0.5757	0.014
Mof_H 	H 	0.4711	0.1612	0.2868	0.027
Mof_C 	C 	0.4763	0.0066	0.2851	0.101
Mof_H 	H 	0.4568	0.984	0.3156	-0.02
Mof_C 	C 	0.4856	0.1042	0.2709	-0.226
Mof_H 	H 	0.472	0.1624	0.2886	0.034
Mof_N 	N 	0.4839	0.1068	0.2711	0.087
Mof_Zn	Zn	0.76771	0.29586	0.30805	1.171
Mof_Cu	Cu	0.80311	0.06447	0.99683	0.85
Mof_N 	N 	0.72083	0.3104	0.20197	-0.288
Mof_N 	N 	0.69206	0.3652	0.08837	-0.232
Mof_C 	C 	0.73479	0.3698	0.1567	0.084
Mof_H 	H 	0.7715	0.4111	0.1717	-0.037
Mof_C 	C 	0.64749	0.2979	0.09019	-0.006
Mof_H 	H 	0.6106	0.2779	0.0498	0.014
Mof_C 	C 	0.66465	0.2644	0.15902	-0.012
Mof_H 	H 	0.6418	0.2174	0.1748	0.001
Mof_N 	N 	0.75152	0.421	0.35364	-0.287
Mof_N 	N 	0.72604	0.5206	0.42734	-0.23
Mof_C 	C 	0.73629	0.4257	0.41057	0.08
Mof_H 	H 	0.7331	0.3671	0.4365	-0.037
Mof_C 	C 	0.75115	0.5218	0.3327	-0.005
Mof_H 	H 	0.7605	0.5448	0.2937	-0.01
Mof_C 	C 	0.73533	0.582	0.3769	-0.014
Mof_H 	H 	0.7313	0.6542	0.3739	0.016
Mof_N 	N 	0.85822	0.2769	0.32806	-0.283
Mof_N 	N 	0.94516	0.2644	0.30605	-0.223
Mof_C 	C 	0.88225	0.2702	0.2784	0.08
Mof_H 	H 	0.8568	0.2697	0.228	-0.03
Mof_C 	C 	0.91034	0.2742	0.3925	-0.027
Mof_H 	H 	0.9096	0.2772	0.4389	0.011
Mof_C 	C 	0.96275	0.2667	0.3796	0.046
Mof_H 	H 	0.0047	0.2634	0.4153	-0.017
Mof_N 	N 	0.92406	0.2527	0.15847	-0.221
Mof_N 	N 	0.85189	0.1764	0.0611	-0.235
Mof_C 	C 	0.90249	0.165	0.12359	0.086
Mof_H 	H 	0.9212	0.1006	0.1414	-0.04
Mof_C 	C 	0.84007	0.2794	0.05628	0.003
Mof_H 	H 	0.8068	0.3129	0.0181	-0.012
Mof_C 	C 	0.88436	0.3257	0.11575	-0.011
Mof_H 	H 	0.8871	0.3969	0.1257	0.019
Mof_N 	N 	0.75896	0.947	0.93376	-0.234
Mof_N 	N 	0.74344	0.8201	0.85448	-0.288
Mof_C 	C 	0.78371	0.8876	0.89861	0.081
Mof_H 	H 	0.8263	0.893	0.9045	-0.047
Mof_C 	C 	0.6878	0.8379	0.8619	-0.009
Mof_H 	H 	0.6493	0.8022	0.8375	0.003
Mof_C 	C 	0.69746	0.9151	0.9098	-0.003
Mof_H 	H 	0.6667	0.9427	0.9243	0.012
Mof_H 	H 	0.0289	0.6612	0.2132	0.025
Mof_C 	C 	0.0237	0.5066	0.2149	0.092
Mof_H 	H 	0.0432	0.484	0.1844	-0.02
Mof_C 	C 	0.0144	0.6042	0.2291	-0.225
Mof_H 	H 	0.028	0.6624	0.2114	0.032
Mof_N 	N 	0.0161	0.6068	0.2289	0.075
Mof_Zn	Zn	0.26771	0.79586	0.30805	1.171
Mof_Cu	Cu	0.30311	0.56447	0.99683	0.851
Mof_N 	N 	0.22083	0.8104	0.20197	-0.288
Mof_N 	N 	0.19206	0.8652	0.08837	-0.233
Mof_C 	C 	0.23479	0.8698	0.1567	0.084
Mof_H 	H 	0.2715	0.9111	0.1717	-0.037
Mof_C 	C 	0.14749	0.7979	0.09019	-0.007
Mof_H 	H 	0.1106	0.7779	0.0498	0.011
Mof_C 	C 	0.16465	0.7644	0.15902	-0.013
Mof_H 	H 	0.1418	0.7174	0.1748	-0.001
Mof_N 	N 	0.25152	0.921	0.35364	-0.288
Mof_N 	N 	0.22604	0.0206	0.42734	-0.231
Mof_C 	C 	0.23629	0.9257	0.41057	0.079
Mof_H 	H 	0.2331	0.8671	0.4365	-0.037
Mof_C 	C 	0.25115	0.0218	0.3327	-0.005
Mof_H 	H 	0.2605	0.0448	0.2937	-0.011
Mof_C 	C 	0.23533	0.082	0.3769	-0.015
Mof_H 	H 	0.2313	0.1542	0.3739	0.016
Mof_N 	N 	0.35822	0.7769	0.32806	-0.288
Mof_N 	N 	0.44516	0.7644	0.30605	-0.222
Mof_C 	C 	0.38225	0.7702	0.2784	0.079
Mof_H 	H 	0.3568	0.7697	0.228	-0.031
Mof_C 	C 	0.41034	0.7742	0.3925	-0.001
Mof_H 	H 	0.4096	0.7772	0.4389	-0.003
Mof_C 	C 	0.46275	0.7667	0.3796	-0.013
Mof_H 	H 	0.5047	0.7634	0.4153	0.02
Mof_N 	N 	0.42406	0.7527	0.15847	-0.228
Mof_N 	N 	0.35189	0.6764	0.0611	-0.236
Mof_C 	C 	0.40249	0.665	0.12359	0.085
Mof_H 	H 	0.4212	0.6006	0.1414	-0.046
Mof_C 	C 	0.34007	0.7794	0.05628	0.002
Mof_H 	H 	0.3068	0.8129	0.0181	-0.013
Mof_C 	C 	0.38436	0.8257	0.11575	-0.012
Mof_H 	H 	0.3871	0.8969	0.1257	0.015
Mof_N 	N 	0.25896	0.447	0.93376	-0.235
Mof_N 	N 	0.24344	0.3201	0.85448	-0.288
Mof_C 	C 	0.28371	0.3876	0.89861	0.081
Mof_H 	H 	0.3263	0.393	0.9045	-0.05
Mof_C 	C 	0.1878	0.3379	0.8619	-0.01
Mof_H 	H 	0.1493	0.3022	0.8375	0.001
Mof_C 	C 	0.19746	0.4151	0.9098	-0.004
Mof_H 	H 	0.1667	0.4427	0.9243	0.01
Mof_H 	H 	0.5289	0.1612	0.2132	0.027
Mof_C 	C 	0.5237	0.0066	0.2149	0.103
Mof_H 	H 	0.5432	0.984	0.1844	-0.021
Mof_C 	C 	0.5144	0.1042	0.2291	-0.226
Mof_H 	H 	0.528	0.1624	0.2114	0.034
Mof_N 	N 	0.5161	0.1068	0.2289	0.087
Mof_Zn	Zn	0.76771	0.70414	0.80805	1.171
Mof_Cu	Cu	0.80311	0.93553	0.49683	0.852
Mof_N 	N 	0.72083	0.6896	0.70197	-0.288
Mof_N 	N 	0.69206	0.6348	0.58837	-0.232
Mof_C 	C 	0.73479	0.6302	0.6567	0.084
Mof_H 	H 	0.7715	0.5889	0.6717	-0.037
Mof_C 	C 	0.64749	0.7021	0.59019	-0.006
Mof_H 	H 	0.6106	0.7221	0.5498	0.013
Mof_C 	C 	0.66465	0.7356	0.65902	-0.012
Mof_H 	H 	0.6418	0.7826	0.6748	0.001
Mof_N 	N 	0.75152	0.579	0.85364	-0.287
Mof_N 	N 	0.72604	0.4794	0.92734	-0.231
Mof_C 	C 	0.73629	0.5743	0.91057	0.08
Mof_H 	H 	0.7331	0.6329	0.9365	-0.037
Mof_C 	C 	0.75115	0.4782	0.8327	-0.005
Mof_H 	H 	0.7605	0.4552	0.7937	-0.01
Mof_C 	C 	0.73533	0.418	0.8769	-0.015
Mof_H 	H 	0.7313	0.3458	0.8739	0.016
Mof_N 	N 	0.85822	0.7231	0.82806	-0.284
Mof_N 	N 	0.94516	0.7356	0.80605	-0.223
Mof_C 	C 	0.88225	0.7298	0.7784	0.08
Mof_H 	H 	0.8568	0.7303	0.728	-0.03
Mof_C 	C 	0.91034	0.7258	0.8925	-0.026
Mof_H 	H 	0.9096	0.7228	0.9389	0.01
Mof_C 	C 	0.96275	0.7333	0.8796	0.043
Mof_H 	H 	0.0047	0.7366	0.9153	-0.015
Mof_N 	N 	0.92406	0.7473	0.65847	-0.221
Mof_N 	N 	0.85189	0.8236	0.5611	-0.236
Mof_C 	C 	0.90249	0.835	0.62359	0.085
Mof_H 	H 	0.9212	0.8994	0.6414	-0.041
Mof_C 	C 	0.84007	0.7206	0.55628	0.003
Mof_H 	H 	0.8068	0.6871	0.5181	-0.013
Mof_C 	C 	0.88436	0.6743	0.61575	-0.011
Mof_H 	H 	0.8871	0.6031	0.6257	0.019
Mof_N 	N 	0.75896	0.053	0.43376	-0.234
Mof_N 	N 	0.74344	0.1799	0.35448	-0.288
Mof_C 	C 	0.78371	0.1124	0.39861	0.081
Mof_H 	H 	0.8263	0.107	0.4045	-0.047
Mof_C 	C 	0.6878	0.1621	0.3619	-0.009
Mof_H 	H 	0.6493	0.1978	0.3375	0.003
Mof_C 	C 	0.69746	0.0849	0.4098	-0.003
Mof_H 	H 	0.6667	0.0573	0.4243	0.012
Mof_H 	H 	0.0289	0.3388	0.7132	0.024
Mof_C 	C 	0.0237	0.4934	0.7149	0.092
Mof_H 	H 	0.0432	0.516	0.6844	-0.02
Mof_C 	C 	0.0144	0.3958	0.7291	-0.225
Mof_H 	H 	0.028	0.3376	0.7114	0.032
Mof_N 	N 	0.0161	0.3932	0.7289	0.076
Mof_Zn	Zn	0.26771	0.20414	0.80805	1.17
Mof_Cu	Cu	0.30311	0.43553	0.49683	0.851
Mof_N 	N 	0.22083	0.1896	0.70197	-0.289
Mof_N 	N 	0.19206	0.1348	0.58837	-0.233
Mof_C 	C 	0.23479	0.1302	0.6567	0.084
Mof_H 	H 	0.2715	0.0889	0.6717	-0.037
Mof_C 	C 	0.14749	0.2021	0.59019	-0.007
Mof_H 	H 	0.1106	0.2221	0.5498	0.01
Mof_C 	C 	0.16465	0.2356	0.65902	-0.013
Mof_H 	H 	0.1418	0.2826	0.6748	-0.001
Mof_N 	N 	0.25152	0.079	0.85364	-0.288
Mof_N 	N 	0.22604	0.9794	0.92734	-0.229
Mof_C 	C 	0.23629	0.0743	0.91057	0.076
Mof_H 	H 	0.2331	0.1329	0.9365	-0.038
Mof_C 	C 	0.25115	0.9782	0.8327	-0.004
Mof_H 	H 	0.2605	0.9552	0.7937	-0.011
Mof_C 	C 	0.23533	0.918	0.8769	-0.016
Mof_H 	H 	0.2313	0.8458	0.8739	0.016
Mof_N 	N 	0.35822	0.2231	0.82806	-0.288
Mof_N 	N 	0.44516	0.2356	0.80605	-0.222
Mof_C 	C 	0.38225	0.2298	0.7784	0.079
Mof_H 	H 	0.3568	0.2303	0.728	-0.031
Mof_C 	C 	0.41034	0.2258	0.8925	-0.002
Mof_H 	H 	0.4096	0.2228	0.9389	-0.003
Mof_C 	C 	0.46275	0.2333	0.8796	-0.013
Mof_H 	H 	0.5047	0.2366	0.9153	0.019
Mof_N 	N 	0.42406	0.2473	0.65847	-0.228
Mof_N 	N 	0.35189	0.3236	0.5611	-0.237
Mof_C 	C 	0.40249	0.335	0.62359	0.085
Mof_H 	H 	0.4212	0.3994	0.6414	-0.046
Mof_C 	C 	0.34007	0.2206	0.55628	0.002
Mof_H 	H 	0.3068	0.1871	0.5181	-0.014
Mof_C 	C 	0.38436	0.1743	0.61575	-0.012
Mof_H 	H 	0.3871	0.1031	0.6257	0.015
Mof_N 	N 	0.25896	0.553	0.43376	-0.235
Mof_N 	N 	0.24344	0.6799	0.35448	-0.288
Mof_C 	C 	0.28371	0.6124	0.39861	0.081
Mof_H 	H 	0.3263	0.607	0.4045	-0.049
Mof_C 	C 	0.1878	0.6621	0.3619	-0.01
Mof_H 	H 	0.1493	0.6978	0.3375	0.001
Mof_C 	C 	0.19746	0.5849	0.4098	-0.004
Mof_H 	H 	0.1667	0.5573	0.4243	0.01
Mof_H 	H 	0.5289	0.8388	0.7132	0.027
Mof_C 	C 	0.5237	0.9934	0.7149	0.102
Mof_H 	H 	0.5432	0.016	0.6844	-0.02
Mof_C 	C 	0.5144	0.8958	0.7291	-0.226
Mof_H 	H 	0.528	0.8376	0.7114	0.033
Mof_N 	N 	0.5161	0.8932	0.7289	0.087
Mof_Zn	Zn	0.23229	0.70414	0.69195	1.171
Mof_Cu	Cu	0.19689	0.93553	0.00317	0.85
Mof_N 	N 	0.27917	0.6896	0.79803	-0.288
Mof_N 	N 	0.30794	0.6348	0.91163	-0.233
Mof_C 	C 	0.26521	0.6302	0.8433	0.084
Mof_H 	H 	0.2285	0.5889	0.8283	-0.037
Mof_C 	C 	0.35251	0.7021	0.90981	-0.006
Mof_H 	H 	0.3894	0.7221	0.9502	0.013
Mof_C 	C 	0.33535	0.7356	0.84098	-0.012
Mof_H 	H 	0.3582	0.7826	0.8252	0.001
Mof_N 	N 	0.24848	0.579	0.64636	-0.287
Mof_N 	N 	0.27396	0.4794	0.57266	-0.231
Mof_C 	C 	0.26371	0.5743	0.58943	0.079
Mof_H 	H 	0.2669	0.6329	0.5635	-0.037
Mof_C 	C 	0.24885	0.4782	0.6673	-0.006
Mof_H 	H 	0.2395	0.4552	0.7063	-0.011
Mof_C 	C 	0.26467	0.418	0.6231	-0.015
Mof_H 	H 	0.2687	0.3458	0.6261	0.016
Mof_N 	N 	0.14178	0.7231	0.67194	-0.292
Mof_N 	N 	0.05484	0.7356	0.69395	-0.217
Mof_C 	C 	0.11775	0.7298	0.7216	0.079
Mof_H 	H 	0.1432	0.7303	0.772	-0.031
Mof_C 	C 	0.08966	0.7258	0.6075	0.024
Mof_H 	H 	0.0904	0.7228	0.5611	-0.017
Mof_C 	C 	0.03725	0.7333	0.6204	-0.071
Mof_H 	H 	0.9953	0.7366	0.5847	0.056
Mof_N 	N 	0.07594	0.7473	0.84153	-0.231
Mof_N 	N 	0.14811	0.8236	0.9389	-0.237
Mof_C 	C 	0.09751	0.835	0.87641	0.084
Mof_H 	H 	0.0788	0.8994	0.8586	-0.051
Mof_C 	C 	0.15993	0.7206	0.94372	0.002
Mof_H 	H 	0.1932	0.6871	0.9819	-0.014
Mof_C 	C 	0.11564	0.6743	0.88425	-0.013
Mof_H 	H 	0.1129	0.6031	0.8743	0.013
Mof_N 	N 	0.24104	0.053	0.06624	-0.234
Mof_N 	N 	0.25656	0.1799	0.14552	-0.288
Mof_C 	C 	0.21629	0.1124	0.10139	0.081
Mof_H 	H 	0.1737	0.107	0.0955	-0.051
Mof_C 	C 	0.3122	0.1621	0.1381	-0.009
Mof_H 	H 	0.3507	0.1978	0.1625	0.004
Mof_C 	C 	0.30254	0.0849	0.0902	-0.003
Mof_H 	H 	0.3333	0.0573	0.0757	0.013
Mof_H 	H 	0.9711	0.3388	0.7868	0.029
Mof_C 	C 	0.9763	0.4934	0.7851	0.128
Mof_H 	H 	0.9568	0.516	0.8156	-0.024
Mof_C 	C 	0.9856	0.3958	0.7709	-0.228
Mof_H 	H 	0.972	0.3376	0.7886	0.035
Mof_N 	N 	0.9839	0.3932	0.7711	0.095
Mof_Zn	Zn	0.73229	0.20414	0.69195	1.171
Mof_Cu	Cu	0.69689	0.43553	0.00317	0.853
Mof_N 	N 	0.77917	0.1896	0.79803	-0.288
Mof_N 	N 	0.80794	0.1348	0.91163	-0.233
Mof_C 	C 	0.76521	0.1302	0.8433	0.085
Mof_H 	H 	0.7285	0.0889	0.8283	-0.037
Mof_C 	C 	0.85251	0.2021	0.90981	-0.005
Mof_H 	H 	0.8894	0.2221	0.9502	0.014
Mof_C 	C 	0.83535	0.2356	0.84098	-0.011
Mof_H 	H 	0.8582	0.2826	0.8252	0.002
Mof_N 	N 	0.74848	0.079	0.64636	-0.287
Mof_N 	N 	0.77396	0.9794	0.57266	-0.23
Mof_C 	C 	0.76371	0.0743	0.58943	0.08
Mof_H 	H 	0.7669	0.1329	0.5635	-0.036
Mof_C 	C 	0.74885	0.9782	0.6673	-0.005
Mof_H 	H 	0.7395	0.9552	0.7063	-0.01
Mof_C 	C 	0.76467	0.918	0.6231	-0.015
Mof_H 	H 	0.7687	0.8458	0.6261	0.016
Mof_N 	N 	0.64178	0.2231	0.67194	-0.288
Mof_N 	N 	0.55484	0.2356	0.69395	-0.222
Mof_C 	C 	0.61775	0.2298	0.7216	0.079
Mof_H 	H 	0.6432	0.2303	0.772	-0.031
Mof_C 	C 	0.58966	0.2258	0.6075	-0.001
Mof_H 	H 	0.5904	0.2228	0.5611	-0.003
Mof_C 	C 	0.53725	0.2333	0.6204	-0.013
Mof_H 	H 	0.4953	0.2366	0.5847	0.02
Mof_N 	N 	0.57594	0.2473	0.84153	-0.228
Mof_N 	N 	0.64811	0.3236	0.9389	-0.237
Mof_C 	C 	0.59751	0.335	0.87641	0.085
Mof_H 	H 	0.5788	0.3994	0.8586	-0.047
Mof_C 	C 	0.65993	0.2206	0.94372	0.002
Mof_H 	H 	0.6932	0.1871	0.9819	-0.015
Mof_C 	C 	0.61564	0.1743	0.88425	-0.013
Mof_H 	H 	0.6129	0.1031	0.8743	0.015
Mof_N 	N 	0.74104	0.553	0.06624	-0.234
Mof_N 	N 	0.75656	0.6799	0.14552	-0.288
Mof_C 	C 	0.71629	0.6124	0.10139	0.081
Mof_H 	H 	0.6737	0.607	0.0955	-0.049
Mof_C 	C 	0.8122	0.6621	0.1381	-0.009
Mof_H 	H 	0.8507	0.6978	0.1625	0.006
Mof_C 	C 	0.80254	0.5849	0.0902	-0.003
Mof_H 	H 	0.8333	0.5573	0.0757	0.014
Mof_H 	H 	0.4711	0.8388	0.7868	0.027
Mof_C 	C 	0.4763	0.9934	0.7851	0.103
Mof_H 	H 	0.4568	0.016	0.8156	-0.021
Mof_C 	C 	0.4856	0.8958	0.7709	-0.226
Mof_H 	H 	0.472	0.8376	0.7886	0.034
Mof_N 	N 	0.4839	0.8932	0.7711	0.087
Mof_Cu	Cu	-2.01434e-17	0.27299	0.25	0.857
Mof_N 	N 	-1.00717e-17	0.445	0.25	-0.235
Mof_Cu	Cu	0.5	0.77299	0.25	0.867
Mof_N 	N 	0.5	0.945	0.25	-0.219
Mof_Cu	Cu	3.45764e-33	0.72701	0.75	0.857
Mof_N 	N 	4.02867e-17	0.555	0.75	-0.234
Mof_Cu	Cu	0.5	0.22701	0.75	0.867
Mof_N 	N 	0.5	0.055	0.75	-0.219
_end
