data_functionalizedCrystal
_audit_creation_method	'EQeq! by Chris Wilmer'
_symmetry_space_group_name_H-M	'P1'
_symmetry_Int_Tables_number	1
_symmetry_cell_setting	triclinic
loop_
_symmetry_equiv_pos_as_xyz
  x,y,z
_cell_length_a	17.1243
_cell_length_b	17.1243
_cell_length_c	9.5607
_cell_angle_alpha	90
_cell_angle_beta	90
_cell_angle_gamma	90
loop_
_atom_site_label
_atom_site_type_symbol
_atom_site_fract_x
_atom_site_fract_y
_atom_site_fract_z
_atom_site_charge
Mof_O 	O 	0.4852	0.61578	0.3856	0.324
Mof_H 	H 	0.392	0.4581	0.1138	-0.006
Mof_C 	C 	0.504	0.7737	0.3523	0.057
Mof_C 	C 	0.495	0.7814	0.6027	0.024
Mof_H 	H 	0.5076	0.7434	0.2693	0.016
Mof_C 	C 	0.504	0.8548	0.3443	0.05
Mof_C 	C 	0.505	0.8625	0.4053	-0.165
Mof_H 	H 	0.4924	0.7564	0.6913	-0.048
Mof_H 	H 	0.5074	0.8798	0.2558	-0.024
Mof_H 	H 	0.5078	0.8928	0.3223	0.024
Mof_C 	C 	0.5196	0.4175	0.0806	0.005
Mof_H 	H 	0.4804	0.3798	0.1157	0.013
Mof_H 	H 	0.4015	0.4284	0.1157	0.035
Mof_O 	O 	0.5148	0.38422	0.3856	0.34
Mof_H 	H 	0.608	0.5419	0.1138	-0.005
Mof_C 	C 	0.496	0.2263	0.3523	0.056
Mof_C 	C 	0.505	0.2186	0.6027	0.03
Mof_H 	H 	0.4924	0.2566	0.2693	0.016
Mof_C 	C 	0.496	0.1452	0.3443	0.053
Mof_C 	C 	0.495	0.1375	0.4053	-0.167
Mof_H 	H 	0.5076	0.2436	0.6913	-0.045
Mof_H 	H 	0.4926	0.1202	0.2558	-0.023
Mof_H 	H 	0.4922	0.1072	0.3223	0.023
Mof_C 	C 	0.4804	0.5825	0.0806	0.014
Mof_H 	H 	0.5196	0.6202	0.1157	0.013
Mof_H 	H 	0.5985	0.5716	0.1157	0.037
Mof_O 	O 	0.38422	0.4852	0.3856	-0.792
Mof_H 	H 	0.5419	0.392	0.1138	-0.017
Mof_C 	C 	0.2263	0.504	0.3523	0.097
Mof_C 	C 	0.2186	0.495	0.6027	-0.009
Mof_H 	H 	0.2566	0.5076	0.2693	0.111
Mof_C 	C 	0.1452	0.504	0.3443	0.069
Mof_C 	C 	0.1375	0.505	0.4053	-0.151
Mof_H 	H 	0.2436	0.4924	0.6913	-0.144
Mof_H 	H 	0.1202	0.5074	0.2558	-0.002
Mof_H 	H 	0.1072	0.5078	0.3223	0.047
Mof_C 	C 	0.5825	0.5196	0.0806	0.004
Mof_H 	H 	0.6202	0.4804	0.1157	0.011
Mof_H 	H 	0.5716	0.4015	0.1157	0.016
Mof_O 	O 	0.61578	0.5148	0.3856	-0.779
Mof_H 	H 	0.4581	0.608	0.1138	-0.018
Mof_C 	C 	0.7737	0.496	0.3523	0.096
Mof_C 	C 	0.7814	0.505	0.6027	-0.01
Mof_H 	H 	0.7434	0.4924	0.2693	0.105
Mof_C 	C 	0.8548	0.496	0.3443	0.064
Mof_C 	C 	0.8625	0.495	0.4053	-0.15
Mof_H 	H 	0.7564	0.5076	0.6913	-0.138
Mof_H 	H 	0.8798	0.4926	0.2558	-0.005
Mof_H 	H 	0.8928	0.4922	0.3223	0.045
Mof_C 	C 	0.4175	0.4804	0.0806	0.003
Mof_H 	H 	0.3798	0.5196	0.1157	0.015
Mof_H 	H 	0.4284	0.5985	0.1157	0.016
Mof_O 	O 	0.5148	0.61578	0.6144	-0.779
Mof_H 	H 	0.608	0.4581	0.8862	-0.005
Mof_C 	C 	0.496	0.7737	0.6477	0.095
Mof_C 	C 	0.505	0.7814	0.3973	-0.011
Mof_H 	H 	0.4924	0.7434	0.7307	0.11
Mof_C 	C 	0.496	0.8548	0.6557	0.078
Mof_C 	C 	0.495	0.8625	0.5947	-0.158
Mof_H 	H 	0.5076	0.7564	0.3087	-0.135
Mof_H 	H 	0.4926	0.8798	0.7442	-0.007
Mof_H 	H 	0.4922	0.8928	0.6777	0.041
Mof_C 	C 	0.4804	0.4175	0.9194	0.014
Mof_H 	H 	0.5196	0.3798	0.8843	0.007
Mof_H 	H 	0.5985	0.4284	0.8843	0.01
Mof_O 	O 	0.4852	0.38422	0.6144	-0.792
Mof_H 	H 	0.392	0.5419	0.8862	-0.003
Mof_C 	C 	0.504	0.2263	0.6477	0.096
Mof_C 	C 	0.495	0.2186	0.3973	-0.011
Mof_H 	H 	0.5076	0.2566	0.7307	0.117
Mof_C 	C 	0.504	0.1452	0.6557	0.083
Mof_C 	C 	0.505	0.1375	0.5947	-0.159
Mof_H 	H 	0.4924	0.2436	0.3087	-0.14
Mof_H 	H 	0.5074	0.1202	0.7442	-0.002
Mof_H 	H 	0.5078	0.1072	0.6777	0.043
Mof_C 	C 	0.5196	0.5825	0.9194	0.015
Mof_H 	H 	0.4804	0.6202	0.8843	0.003
Mof_H 	H 	0.4015	0.5716	0.8843	0.011
Mof_O 	O 	0.61578	0.4852	0.6144	0.325
Mof_H 	H 	0.4581	0.392	0.8862	0.01
Mof_C 	C 	0.7737	0.504	0.6477	0.057
Mof_C 	C 	0.7814	0.495	0.3973	0.024
Mof_H 	H 	0.7434	0.5076	0.7307	0.023
Mof_C 	C 	0.8548	0.504	0.6557	0.064
Mof_C 	C 	0.8625	0.505	0.5947	-0.171
Mof_H 	H 	0.7564	0.4924	0.3087	-0.044
Mof_H 	H 	0.8798	0.5074	0.7442	-0.025
Mof_H 	H 	0.8928	0.5078	0.6777	0.021
Mof_C 	C 	0.4175	0.5196	0.9194	0.016
Mof_H 	H 	0.3798	0.4804	0.8843	0.005
Mof_H 	H 	0.4284	0.4015	0.8843	0.031
Mof_O 	O 	0.38422	0.5148	0.6144	0.341
Mof_H 	H 	0.5419	0.608	0.8862	0.008
Mof_C 	C 	0.2263	0.496	0.6477	0.055
Mof_C 	C 	0.2186	0.505	0.3973	0.028
Mof_H 	H 	0.2566	0.4924	0.7307	0.022
Mof_C 	C 	0.1452	0.496	0.6557	0.067
Mof_C 	C 	0.1375	0.495	0.5947	-0.175
Mof_H 	H 	0.2436	0.5076	0.3087	-0.042
Mof_H 	H 	0.1202	0.4926	0.7442	-0.024
Mof_H 	H 	0.1072	0.4922	0.6777	0.019
Mof_C 	C 	0.5825	0.4804	0.9194	0.024
Mof_H 	H 	0.6202	0.5196	0.8843	0.005
Mof_H 	H 	0.5716	0.5985	0.8843	0.032
Mof_O 	O 	0.5148	0.38422	0.6144	0.341
Mof_H 	H 	0.608	0.5419	0.8862	0.008
Mof_C 	C 	0.496	0.2263	0.6477	0.055
Mof_C 	C 	0.505	0.2186	0.3973	0.028
Mof_H 	H 	0.4924	0.2566	0.7307	0.022
Mof_C 	C 	0.496	0.1452	0.6557	0.067
Mof_C 	C 	0.495	0.1375	0.5947	-0.175
Mof_H 	H 	0.5076	0.2436	0.3087	-0.042
Mof_H 	H 	0.4926	0.1202	0.7442	-0.024
Mof_H 	H 	0.4922	0.1072	0.6777	0.019
Mof_C 	C 	0.4804	0.5825	0.9194	0.024
Mof_H 	H 	0.5196	0.6202	0.8843	0.005
Mof_H 	H 	0.5985	0.5716	0.8843	0.032
Mof_O 	O 	0.4852	0.61578	0.6144	0.325
Mof_H 	H 	0.392	0.4581	0.8862	0.01
Mof_C 	C 	0.504	0.7737	0.6477	0.057
Mof_C 	C 	0.495	0.7814	0.3973	0.024
Mof_H 	H 	0.5076	0.7434	0.7307	0.023
Mof_C 	C 	0.504	0.8548	0.6557	0.064
Mof_C 	C 	0.505	0.8625	0.5947	-0.171
Mof_H 	H 	0.4924	0.7564	0.3087	-0.044
Mof_H 	H 	0.5074	0.8798	0.7442	-0.025
Mof_H 	H 	0.5078	0.8928	0.6777	0.021
Mof_C 	C 	0.5196	0.4175	0.9194	0.016
Mof_H 	H 	0.4804	0.3798	0.8843	0.005
Mof_H 	H 	0.4015	0.4284	0.8843	0.031
Mof_O 	O 	0.61578	0.5148	0.6144	-0.779
Mof_H 	H 	0.4581	0.608	0.8862	-0.005
Mof_C 	C 	0.7737	0.496	0.6477	0.095
Mof_C 	C 	0.7814	0.505	0.3973	-0.011
Mof_H 	H 	0.7434	0.4924	0.7307	0.11
Mof_C 	C 	0.8548	0.496	0.6557	0.078
Mof_C 	C 	0.8625	0.495	0.5947	-0.158
Mof_H 	H 	0.7564	0.5076	0.3087	-0.135
Mof_H 	H 	0.8798	0.4926	0.7442	-0.007
Mof_H 	H 	0.8928	0.4922	0.6777	0.041
Mof_C 	C 	0.4175	0.4804	0.9194	0.014
Mof_H 	H 	0.3798	0.5196	0.8843	0.007
Mof_H 	H 	0.4284	0.5985	0.8843	0.01
Mof_O 	O 	0.38422	0.4852	0.6144	-0.792
Mof_H 	H 	0.5419	0.392	0.8862	-0.003
Mof_C 	C 	0.2263	0.504	0.6477	0.096
Mof_C 	C 	0.2186	0.495	0.3973	-0.011
Mof_H 	H 	0.2566	0.5076	0.7307	0.117
Mof_C 	C 	0.1452	0.504	0.6557	0.083
Mof_C 	C 	0.1375	0.505	0.5947	-0.159
Mof_H 	H 	0.2436	0.4924	0.3087	-0.14
Mof_H 	H 	0.1202	0.5074	0.7442	-0.002
Mof_H 	H 	0.1072	0.5078	0.6777	0.043
Mof_C 	C 	0.5825	0.5196	0.9194	0.015
Mof_H 	H 	0.6202	0.4804	0.8843	0.003
Mof_H 	H 	0.5716	0.4015	0.8843	0.011
Mof_O 	O 	0.4852	0.38422	0.3856	-0.792
Mof_H 	H 	0.392	0.5419	0.1138	-0.017
Mof_C 	C 	0.504	0.2263	0.3523	0.097
Mof_C 	C 	0.495	0.2186	0.6027	-0.009
Mof_H 	H 	0.5076	0.2566	0.2693	0.111
Mof_C 	C 	0.504	0.1452	0.3443	0.069
Mof_C 	C 	0.505	0.1375	0.4053	-0.151
Mof_H 	H 	0.4924	0.2436	0.6913	-0.144
Mof_H 	H 	0.5074	0.1202	0.2558	-0.002
Mof_H 	H 	0.5078	0.1072	0.3223	0.047
Mof_C 	C 	0.5196	0.5825	0.0806	0.004
Mof_H 	H 	0.4804	0.6202	0.1157	0.011
Mof_H 	H 	0.4015	0.5716	0.1157	0.016
Mof_O 	O 	0.5148	0.61578	0.3856	-0.779
Mof_H 	H 	0.608	0.4581	0.1138	-0.018
Mof_C 	C 	0.496	0.7737	0.3523	0.096
Mof_C 	C 	0.505	0.7814	0.6027	-0.01
Mof_H 	H 	0.4924	0.7434	0.2693	0.105
Mof_C 	C 	0.496	0.8548	0.3443	0.064
Mof_C 	C 	0.495	0.8625	0.4053	-0.15
Mof_H 	H 	0.5076	0.7564	0.6913	-0.138
Mof_H 	H 	0.4926	0.8798	0.2558	-0.005
Mof_H 	H 	0.4922	0.8928	0.3223	0.045
Mof_C 	C 	0.4804	0.4175	0.0806	0.003
Mof_H 	H 	0.5196	0.3798	0.1157	0.015
Mof_H 	H 	0.5985	0.4284	0.1157	0.016
Mof_O 	O 	0.38422	0.5148	0.3856	0.34
Mof_H 	H 	0.5419	0.608	0.1138	-0.005
Mof_C 	C 	0.2263	0.496	0.3523	0.056
Mof_C 	C 	0.2186	0.505	0.6027	0.03
Mof_H 	H 	0.2566	0.4924	0.2693	0.016
Mof_C 	C 	0.1452	0.496	0.3443	0.053
Mof_C 	C 	0.1375	0.495	0.4053	-0.167
Mof_H 	H 	0.2436	0.5076	0.6913	-0.045
Mof_H 	H 	0.1202	0.4926	0.2558	-0.023
Mof_H 	H 	0.1072	0.4922	0.3223	0.023
Mof_C 	C 	0.5825	0.4804	0.0806	0.014
Mof_H 	H 	0.6202	0.5196	0.1157	0.013
Mof_H 	H 	0.5716	0.5985	0.1157	0.037
Mof_O 	O 	0.61578	0.4852	0.3856	0.325
Mof_H 	H 	0.4581	0.392	0.1138	-0.005
Mof_C 	C 	0.7737	0.504	0.3523	0.058
Mof_C 	C 	0.7814	0.495	0.6027	0.025
Mof_H 	H 	0.7434	0.5076	0.2693	0.017
Mof_C 	C 	0.8548	0.504	0.3443	0.051
Mof_C 	C 	0.8625	0.505	0.4053	-0.164
Mof_H 	H 	0.7564	0.4924	0.6913	-0.047
Mof_H 	H 	0.8798	0.5074	0.2558	-0.023
Mof_H 	H 	0.8928	0.5078	0.3223	0.025
Mof_C 	C 	0.4175	0.5196	0.0806	0.006
Mof_H 	H 	0.3798	0.4804	0.1157	0.014
Mof_H 	H 	0.4284	0.4015	0.1157	0.036
Mof_Zn	Zn	0.5	0.5	0.34758	1.209
Mof_N 	N 	0.5	0.5	0.1338	-0.186
Mof_Zn	Zn	0.5	0.5	0.65242	1.208
Mof_N 	N 	0.5	0.5	0.8662	-0.196
Mof_C 	C 	0.4449	0.4449	0.0794	-0.077
Mof_C 	C 	0.5551	0.5551	0.0794	-0.086
Mof_C 	C 	0.5551	0.4449	0.0794	-0.061
Mof_C 	C 	0.4449	0.5551	0.0794	-0.061
Mof_C 	C 	0.5551	0.4449	0.9206	-0.048
Mof_C 	C 	0.4449	0.5551	0.9206	-0.048
Mof_C 	C 	0.4449	0.4449	0.9206	-0.064
Mof_C 	C 	0.5551	0.5551	0.9206	-0.073
Mof_C 	C 	0.5	0.6493	0.5	0.365
Mof_C 	C 	0.5	0.3507	0.5	0.367
Mof_C 	C 	0.3507	0.5	0.5	0.367
Mof_C 	C 	0.6493	0.5	0.5	0.365
Mof_C 	C 	0.5	0.7371	0.4816	-0.064
Mof_C 	C 	0.5	0.8992	0.4655	0.172
Mof_N 	N 	0.5	0.981	0.4456	-0.067
Mof_C 	C 	0.5	0.2629	0.4816	-0.064
Mof_C 	C 	0.5	0.1008	0.4655	0.174
Mof_N 	N 	0.5	0.019	0.4456	-0.057
Mof_C 	C 	0.2629	0.5	0.4816	-0.064
Mof_C 	C 	0.1008	0.5	0.4655	0.174
Mof_N 	N 	0.019	0.5	0.4456	-0.057
Mof_C 	C 	0.7371	0.5	0.4816	-0.064
Mof_C 	C 	0.8992	0.5	0.4655	0.172
Mof_N 	N 	0.981	0.5	0.4456	-0.067
Mof_C 	C 	0.5	0.7371	0.5184	-0.065
Mof_C 	C 	0.5	0.8992	0.5345	0.157
Mof_N 	N 	0.5	0.981	0.5544	-0.071
Mof_C 	C 	0.5	0.2629	0.5184	-0.065
Mof_C 	C 	0.5	0.1008	0.5345	0.159
Mof_N 	N 	0.5	0.019	0.5544	-0.055
Mof_C 	C 	0.7371	0.5	0.5184	-0.065
Mof_C 	C 	0.8992	0.5	0.5345	0.157
Mof_N 	N 	0.981	0.5	0.5544	-0.071
Mof_C 	C 	0.2629	0.5	0.5184	-0.065
Mof_C 	C 	0.1008	0.5	0.5345	0.159
Mof_N 	N 	0.019	0.5	0.5544	-0.055
Mof_O 	O 	0.9852	0.11578	0.8856	0.058
Mof_H 	H 	0.892	0.9581	0.6138	-0.015
Mof_C 	C 	0.004	0.2737	0.8523	0.023
Mof_C 	C 	0.995	0.2814	0.1027	-0.022
Mof_H 	H 	0.0076	0.2434	0.7693	0.004
Mof_C 	C 	0.004	0.3548	0.8443	-0.1
Mof_C 	C 	0.005	0.3625	0.9053	-0.09
Mof_H 	H 	0.9924	0.2564	0.1913	-0.032
Mof_H 	H 	0.0074	0.3798	0.7558	-0.027
Mof_H 	H 	0.0078	0.3928	0.8223	0.008
Mof_C 	C 	0.0196	0.9175	0.5806	-0.051
Mof_H 	H 	0.9804	0.8798	0.6157	0.015
Mof_H 	H 	0.9015	0.9284	0.6157	0.015
Mof_O 	O 	0.0148	0.88422	0.8856	-0.279
Mof_H 	H 	0.108	0.0419	0.6138	0.009
Mof_C 	C 	0.996	0.7263	0.8523	0.091
Mof_C 	C 	0.005	0.7186	0.1027	-0.057
Mof_H 	H 	0.9924	0.7566	0.7693	0.106
Mof_C 	C 	0.996	0.6452	0.8443	-0.038
Mof_C 	C 	0.995	0.6375	0.9053	-0.043
Mof_H 	H 	0.0076	0.7436	0.1913	-0.101
Mof_H 	H 	0.9926	0.6202	0.7558	0.037
Mof_H 	H 	0.9922	0.6072	0.8223	0.082
Mof_C 	C 	0.9804	0.0825	0.5806	0.074
Mof_H 	H 	0.0196	0.1202	0.6157	0.003
Mof_H 	H 	0.0985	0.0716	0.6157	0.04
Mof_O 	O 	0.88422	0.9852	0.8856	-0.163
Mof_H 	H 	0.0419	0.892	0.6138	0.004
Mof_C 	C 	0.7263	0.004	0.8523	0.035
Mof_C 	C 	0.7186	0.995	0.1027	-0.031
Mof_H 	H 	0.7566	0.0076	0.7693	0.022
Mof_C 	C 	0.6452	0.004	0.8443	-0.087
Mof_C 	C 	0.6375	0.005	0.9053	-0.09
Mof_H 	H 	0.7436	0.9924	0.1913	-0.055
Mof_H 	H 	0.6202	0.0074	0.7558	-0.018
Mof_H 	H 	0.6072	0.0078	0.8223	0.018
Mof_C 	C 	0.0825	0.0196	0.5806	0.013
Mof_H 	H 	0.1202	0.9804	0.6157	-0.013
Mof_H 	H 	0.0716	0.9015	0.6157	0.029
Mof_O 	O 	0.11578	0.0148	0.8856	-0.469
Mof_H 	H 	0.9581	0.108	0.6138	-0.013
Mof_C 	C 	0.2737	0.996	0.8523	0.097
Mof_C 	C 	0.2814	0.005	0.1027	-0.064
Mof_H 	H 	0.2434	0.9924	0.7693	0.132
Mof_C 	C 	0.3548	0.996	0.8443	-0.04
Mof_C 	C 	0.3625	0.995	0.9053	-0.031
Mof_H 	H 	0.2564	0.0076	0.1913	-0.124
Mof_H 	H 	0.3798	0.9926	0.7558	0.05
Mof_H 	H 	0.3928	0.9922	0.8223	0.094
Mof_C 	C 	0.9175	0.9804	0.5806	0.008
Mof_H 	H 	0.8798	0.0196	0.6157	0.032
Mof_H 	H 	0.9284	0.0985	0.6157	0.012
Mof_O 	O 	0.0148	0.11578	0.1144	-0.433
Mof_H 	H 	0.108	0.9581	0.3862	-0.013
Mof_C 	C 	0.996	0.2737	0.1477	0.107
Mof_C 	C 	0.005	0.2814	0.8973	0.012
Mof_H 	H 	0.9924	0.2434	0.2307	0.098
Mof_C 	C 	0.996	0.3548	0.1557	0.209
Mof_C 	C 	0.995	0.3625	0.0947	-0.225
Mof_H 	H 	0.0076	0.2564	0.8087	-0.155
Mof_H 	H 	0.9926	0.3798	0.2442	-0.01
Mof_H 	H 	0.9922	0.3928	0.1777	0.04
Mof_C 	C 	0.9804	0.9175	0.4194	0.008
Mof_H 	H 	0.0196	0.8798	0.3843	0.031
Mof_H 	H 	0.0985	0.9284	0.3843	0.011
Mof_O 	O 	0.9852	0.88422	0.1144	-0.22
Mof_H 	H 	0.892	0.0419	0.3862	0.002
Mof_C 	C 	0.004	0.7263	0.1477	0.072
Mof_C 	C 	0.995	0.7186	0.8973	0.066
Mof_H 	H 	0.0076	0.7566	0.2307	0.029
Mof_C 	C 	0.004	0.6452	0.1557	0.175
Mof_C 	C 	0.005	0.6375	0.0947	-0.252
Mof_H 	H 	0.9924	0.7436	0.8087	-0.04
Mof_H 	H 	0.0074	0.6202	0.2442	-0.05
Mof_H 	H 	0.0078	0.6072	0.1777	-0.002
Mof_C 	C 	0.0196	0.0825	0.4194	0.014
Mof_H 	H 	0.9804	0.1202	0.3843	-0.013
Mof_H 	H 	0.9015	0.0716	0.3843	0.029
Mof_O 	O 	0.11578	0.9852	0.1144	-0.003
Mof_H 	H 	0.9581	0.892	0.3862	-0.014
Mof_C 	C 	0.2737	0.004	0.1477	0.062
Mof_C 	C 	0.2814	0.995	0.8973	0.081
Mof_H 	H 	0.2434	0.0076	0.2307	0.01
Mof_C 	C 	0.3548	0.004	0.1557	0.173
Mof_C 	C 	0.3625	0.005	0.0947	-0.259
Mof_H 	H 	0.2564	0.9924	0.8087	-0.019
Mof_H 	H 	0.3798	0.0074	0.2442	-0.061
Mof_H 	H 	0.3928	0.0078	0.1777	-0.015
Mof_C 	C 	0.9175	0.0196	0.4194	-0.051
Mof_H 	H 	0.8798	0.9804	0.3843	0.015
Mof_H 	H 	0.9284	0.9015	0.3843	0.014
Mof_O 	O 	0.88422	0.0148	0.1144	-0.239
Mof_H 	H 	0.0419	0.108	0.3862	0.007
Mof_C 	C 	0.7263	0.996	0.1477	0.101
Mof_C 	C 	0.7186	0.005	0.8973	0.013
Mof_H 	H 	0.7566	0.9924	0.2307	0.073
Mof_C 	C 	0.6452	0.996	0.1557	0.199
Mof_C 	C 	0.6375	0.995	0.0947	-0.23
Mof_H 	H 	0.7436	0.0076	0.8087	-0.131
Mof_H 	H 	0.6202	0.9926	0.2442	-0.021
Mof_H 	H 	0.6072	0.9922	0.1777	0.03
Mof_C 	C 	0.0825	0.9804	0.4194	0.075
Mof_H 	H 	0.1202	0.0196	0.3843	0.003
Mof_H 	H 	0.0716	0.0985	0.3843	0.04
Mof_O 	O 	0.0148	0.88422	0.1144	-0.239
Mof_H 	H 	0.108	0.0419	0.3862	0.007
Mof_C 	C 	0.996	0.7263	0.1477	0.101
Mof_C 	C 	0.005	0.7186	0.8973	0.013
Mof_H 	H 	0.9924	0.7566	0.2307	0.073
Mof_C 	C 	0.996	0.6452	0.1557	0.199
Mof_C 	C 	0.995	0.6375	0.0947	-0.23
Mof_H 	H 	0.0076	0.7436	0.8087	-0.131
Mof_H 	H 	0.9926	0.6202	0.2442	-0.021
Mof_H 	H 	0.9922	0.6072	0.1777	0.03
Mof_C 	C 	0.9804	0.0825	0.4194	0.075
Mof_H 	H 	0.0196	0.1202	0.3843	0.003
Mof_H 	H 	0.0985	0.0716	0.3843	0.04
Mof_O 	O 	0.9852	0.11578	0.1144	-0.003
Mof_H 	H 	0.892	0.9581	0.3862	-0.014
Mof_C 	C 	0.004	0.2737	0.1477	0.062
Mof_C 	C 	0.995	0.2814	0.8973	0.081
Mof_H 	H 	0.0076	0.2434	0.2307	0.01
Mof_C 	C 	0.004	0.3548	0.1557	0.173
Mof_C 	C 	0.005	0.3625	0.0947	-0.259
Mof_H 	H 	0.9924	0.2564	0.8087	-0.019
Mof_H 	H 	0.0074	0.3798	0.2442	-0.061
Mof_H 	H 	0.0078	0.3928	0.1777	-0.015
Mof_C 	C 	0.0196	0.9175	0.4194	-0.051
Mof_H 	H 	0.9804	0.8798	0.3843	0.015
Mof_H 	H 	0.9015	0.9284	0.3843	0.014
Mof_O 	O 	0.11578	0.0148	0.1144	-0.433
Mof_H 	H 	0.9581	0.108	0.3862	-0.013
Mof_C 	C 	0.2737	0.996	0.1477	0.107
Mof_C 	C 	0.2814	0.005	0.8973	0.012
Mof_H 	H 	0.2434	0.9924	0.2307	0.098
Mof_C 	C 	0.3548	0.996	0.1557	0.209
Mof_C 	C 	0.3625	0.995	0.0947	-0.225
Mof_H 	H 	0.2564	0.0076	0.8087	-0.155
Mof_H 	H 	0.3798	0.9926	0.2442	-0.01
Mof_H 	H 	0.3928	0.9922	0.1777	0.04
Mof_C 	C 	0.9175	0.9804	0.4194	0.008
Mof_H 	H 	0.8798	0.0196	0.3843	0.031
Mof_H 	H 	0.9284	0.0985	0.3843	0.011
Mof_O 	O 	0.88422	0.9852	0.1144	-0.22
Mof_H 	H 	0.0419	0.892	0.3862	0.002
Mof_C 	C 	0.7263	0.004	0.1477	0.072
Mof_C 	C 	0.7186	0.995	0.8973	0.066
Mof_H 	H 	0.7566	0.0076	0.2307	0.029
Mof_C 	C 	0.6452	0.004	0.1557	0.175
Mof_C 	C 	0.6375	0.005	0.0947	-0.252
Mof_H 	H 	0.7436	0.9924	0.8087	-0.04
Mof_H 	H 	0.6202	0.0074	0.2442	-0.05
Mof_H 	H 	0.6072	0.0078	0.1777	-0.002
Mof_C 	C 	0.0825	0.0196	0.4194	0.014
Mof_H 	H 	0.1202	0.9804	0.3843	-0.013
Mof_H 	H 	0.0716	0.9015	0.3843	0.029
Mof_O 	O 	0.9852	0.88422	0.8856	-0.163
Mof_H 	H 	0.892	0.0419	0.6138	0.004
Mof_C 	C 	0.004	0.7263	0.8523	0.035
Mof_C 	C 	0.995	0.7186	0.1027	-0.031
Mof_H 	H 	0.0076	0.7566	0.7693	0.022
Mof_C 	C 	0.004	0.6452	0.8443	-0.087
Mof_C 	C 	0.005	0.6375	0.9053	-0.09
Mof_H 	H 	0.9924	0.7436	0.1913	-0.055
Mof_H 	H 	0.0074	0.6202	0.7558	-0.018
Mof_H 	H 	0.0078	0.6072	0.8223	0.018
Mof_C 	C 	0.0196	0.0825	0.5806	0.013
Mof_H 	H 	0.9804	0.1202	0.6157	-0.013
Mof_H 	H 	0.9015	0.0716	0.6157	0.029
Mof_O 	O 	0.0148	0.11578	0.8856	-0.469
Mof_H 	H 	0.108	0.9581	0.6138	-0.013
Mof_C 	C 	0.996	0.2737	0.8523	0.097
Mof_C 	C 	0.005	0.2814	0.1027	-0.064
Mof_H 	H 	0.9924	0.2434	0.7693	0.132
Mof_C 	C 	0.996	0.3548	0.8443	-0.04
Mof_C 	C 	0.995	0.3625	0.9053	-0.031
Mof_H 	H 	0.0076	0.2564	0.1913	-0.124
Mof_H 	H 	0.9926	0.3798	0.7558	0.05
Mof_H 	H 	0.9922	0.3928	0.8223	0.094
Mof_C 	C 	0.9804	0.9175	0.5806	0.008
Mof_H 	H 	0.0196	0.8798	0.6157	0.032
Mof_H 	H 	0.0985	0.9284	0.6157	0.012
Mof_O 	O 	0.88422	0.0148	0.8856	-0.279
Mof_H 	H 	0.0419	0.108	0.6138	0.009
Mof_C 	C 	0.7263	0.996	0.8523	0.091
Mof_C 	C 	0.7186	0.005	0.1027	-0.057
Mof_H 	H 	0.7566	0.9924	0.7693	0.106
Mof_C 	C 	0.6452	0.996	0.8443	-0.038
Mof_C 	C 	0.6375	0.995	0.9053	-0.043
Mof_H 	H 	0.7436	0.0076	0.1913	-0.101
Mof_H 	H 	0.6202	0.9926	0.7558	0.037
Mof_H 	H 	0.6072	0.9922	0.8223	0.082
Mof_C 	C 	0.0825	0.9804	0.5806	0.074
Mof_H 	H 	0.1202	0.0196	0.6157	0.003
Mof_H 	H 	0.0716	0.0985	0.6157	0.04
Mof_O 	O 	0.11578	0.9852	0.8856	0.058
Mof_H 	H 	0.9581	0.892	0.6138	-0.015
Mof_C 	C 	0.2737	0.004	0.8523	0.023
Mof_C 	C 	0.2814	0.995	0.1027	-0.022
Mof_H 	H 	0.2434	0.0076	0.7693	0.004
Mof_C 	C 	0.3548	0.004	0.8443	-0.1
Mof_C 	C 	0.3625	0.005	0.9053	-0.09
Mof_H 	H 	0.2564	0.9924	0.1913	-0.032
Mof_H 	H 	0.3798	0.0074	0.7558	-0.027
Mof_H 	H 	0.3928	0.0078	0.8223	0.008
Mof_C 	C 	0.9175	0.0196	0.5806	-0.051
Mof_H 	H 	0.8798	0.9804	0.6157	0.015
Mof_H 	H 	0.9284	0.9015	0.6157	0.015
Mof_Zn	Zn	6.27626e-33	4.502e-33	0.84758	1.212
Mof_N 	N 	1.32676e-33	0	0.6338	-0.186
Mof_Zn	Zn	3.19066e-34	0	0.15242	1.207
Mof_N 	N 	7.66579e-34	0	0.3662	-0.188
Mof_C 	C 	0.9449	0.9449	0.5794	-0.006
Mof_C 	C 	0.0551	0.0551	0.5794	-0.132
Mof_C 	C 	0.0551	0.9449	0.5794	-0.061
Mof_C 	C 	0.9449	0.0551	0.5794	-0.061
Mof_C 	C 	0.0551	0.9449	0.4206	-0.06
Mof_C 	C 	0.9449	0.0551	0.4206	-0.06
Mof_C 	C 	0.9449	0.9449	0.4206	-0.005
Mof_C 	C 	0.0551	0.0551	0.4206	-0.132
Mof_C 	C 	-1.1255e-33	0.1493	-0	0.321
Mof_C 	C 	-9.00399e-33	0.8507	-0	0.32
Mof_C 	C 	0.8507	0	-0	0.32
Mof_C 	C 	0.1493	0	-0	0.321
Mof_C 	C 	-2.44718e-33	0.2371	0.9816	-0.105
Mof_C 	C 	-6.98288e-33	0.3992	0.9655	0.236
Mof_N 	N 	6.48145e-33	0.481	0.9456	-0.062
Mof_C 	C 	6.55681e-33	0.7629	0.9816	-0.102
Mof_C 	C 	-6.98288e-33	0.6008	0.9655	0.234
Mof_N 	N 	-1.15265e-32	0.519	0.9456	-0.061
Mof_C 	C 	0.7629	-4.502e-33	0.9816	-0.102
Mof_C 	C 	0.6008	-4.502e-33	0.9655	0.234
Mof_N 	N 	0.519	0	0.9456	-0.061
Mof_C 	C 	0.2371	-4.502e-33	0.9816	-0.105
Mof_C 	C 	0.3992	-4.502e-33	0.9655	0.236
Mof_N 	N 	0.481	0	0.9456	-0.062
Mof_C 	C 	-1.79042e-33	0.2371	0.0184	0.008
Mof_C 	C 	-1.8974e-33	0.3992	0.0345	0.08
Mof_N 	N 	-6.35774e-33	0.481	0.0544	-0.059
Mof_C 	C 	2.71158e-33	0.7629	0.0184	0.003
Mof_C 	C 	-1.8974e-33	0.6008	0.0345	0.086
Mof_N 	N 	-6.35774e-33	0.519	0.0544	-0.063
Mof_C 	C 	0.2371	1.40687e-34	0.0184	0.008
Mof_C 	C 	0.3992	0	0.0345	0.08
Mof_N 	N 	0.481	0	0.0544	-0.059
Mof_C 	C 	0.7629	1.40687e-34	0.0184	0.003
Mof_C 	C 	0.6008	0	0.0345	0.086
Mof_N 	N 	0.519	0	0.0544	-0.063
_end
