data_functionalizedCrystal
_audit_creation_method	'EQeq! by Chris Wilmer'
_symmetry_space_group_name_H-M	'P1'
_symmetry_Int_Tables_number	1
_symmetry_cell_setting	triclinic
loop_
_symmetry_equiv_pos_as_xyz
  x,y,z
_cell_length_a	12.358
_cell_length_b	12.358
_cell_length_c	22.9288
_cell_angle_alpha	90
_cell_angle_beta	90
_cell_angle_gamma	90
loop_
_atom_site_label
_atom_site_type_symbol
_atom_site_fract_x
_atom_site_fract_y
_atom_site_fract_z
_atom_site_charge
Mof_C 	C 	0.9794	0.0887	0.1245	0.046
Mof_H 	H 	0.9648	0.1535	0.1037	0.014
Mof_C 	C 	0.9782	0.0904	0.1873	-0.069
Mof_H 	H 	0.9619	0.1557	0.2073	0.05
Mof_C 	C 	0.4794	0.5887	0.6245	0.041
Mof_H 	H 	0.4648	0.6535	0.6037	0.01
Mof_C 	C 	0.4782	0.5904	0.6873	-0.086
Mof_H 	H 	0.4619	0.6557	0.7073	0.052
Mof_C 	C 	0.0206	0.9113	0.1245	0.044
Mof_H 	H 	0.0352	0.8465	0.1037	0.009
Mof_C 	C 	0.0218	0.9096	0.1873	-0.071
Mof_H 	H 	0.0381	0.8443	0.2073	0.045
Mof_C 	C 	0.5206	0.4113	0.6245	0.04
Mof_H 	H 	0.5352	0.3465	0.6037	0.01
Mof_C 	C 	0.5218	0.4096	0.6873	-0.086
Mof_H 	H 	0.5381	0.3443	0.7073	0.051
Mof_C 	C 	0.9113	0.9794	0.1245	0.054
Mof_H 	H 	0.8465	0.9648	0.1037	0.011
Mof_C 	C 	0.9096	0.9782	0.1873	-0.06
Mof_H 	H 	0.8443	0.9619	0.2073	0.048
Mof_C 	C 	0.4113	0.4794	0.6245	0.04
Mof_H 	H 	0.3465	0.4648	0.6037	0.01
Mof_C 	C 	0.4096	0.4782	0.6873	-0.086
Mof_H 	H 	0.3443	0.4619	0.7073	0.05
Mof_C 	C 	0.0887	0.0206	0.1245	0.027
Mof_H 	H 	0.1535	0.0352	0.1037	0.011
Mof_C 	C 	0.0904	0.0218	0.1873	-0.085
Mof_H 	H 	0.1557	0.0381	0.2073	0.047
Mof_C 	C 	0.5887	0.5206	0.6245	0.041
Mof_H 	H 	0.6535	0.5352	0.6037	0.011
Mof_C 	C 	0.5904	0.5218	0.6873	-0.086
Mof_H 	H 	0.6557	0.5381	0.7073	0.052
Mof_C 	C 	0.0206	0.0887	0.3755	0.027
Mof_H 	H 	0.0352	0.1535	0.3963	0.011
Mof_C 	C 	0.0218	0.0904	0.3127	-0.086
Mof_H 	H 	0.0381	0.1557	0.2927	0.047
Mof_C 	C 	0.5206	0.5887	0.8755	0.04
Mof_H 	H 	0.5352	0.6535	0.8963	0.013
Mof_C 	C 	0.5218	0.5904	0.8127	-0.085
Mof_H 	H 	0.5381	0.6557	0.7927	0.052
Mof_C 	C 	0.9794	0.9113	0.3755	0.054
Mof_H 	H 	0.9648	0.8465	0.3963	0.011
Mof_C 	C 	0.9782	0.9096	0.3127	-0.06
Mof_H 	H 	0.9619	0.8443	0.2927	0.048
Mof_C 	C 	0.4794	0.4113	0.8755	0.04
Mof_H 	H 	0.4648	0.3465	0.8963	0.012
Mof_C 	C 	0.4782	0.4096	0.8127	-0.085
Mof_H 	H 	0.4619	0.3443	0.7927	0.05
Mof_C 	C 	0.0887	0.9794	0.3755	0.045
Mof_H 	H 	0.1535	0.9648	0.3963	0.012
Mof_C 	C 	0.0904	0.9782	0.3127	-0.07
Mof_H 	H 	0.1557	0.9619	0.2927	0.05
Mof_C 	C 	0.5887	0.4794	0.8755	0.04
Mof_H 	H 	0.6535	0.4648	0.8963	0.013
Mof_C 	C 	0.5904	0.4782	0.8127	-0.085
Mof_H 	H 	0.6557	0.4619	0.7927	0.052
Mof_C 	C 	0.9113	0.0206	0.3755	0.044
Mof_H 	H 	0.8465	0.0352	0.3963	0.009
Mof_C 	C 	0.9096	0.0218	0.3127	-0.071
Mof_H 	H 	0.8443	0.0381	0.2927	0.045
Mof_C 	C 	0.4113	0.5206	0.8755	0.04
Mof_H 	H 	0.3465	0.5352	0.8963	0.013
Mof_C 	C 	0.4096	0.5218	0.8127	-0.085
Mof_H 	H 	0.3443	0.5381	0.7927	0.051
Mof_C 	C 	0.0206	0.9113	0.8755	0.043
Mof_H 	H 	0.0352	0.8465	0.8963	0.011
Mof_C 	C 	0.0218	0.9096	0.8127	-0.071
Mof_H 	H 	0.0381	0.8443	0.7927	0.046
Mof_C 	C 	0.5206	0.4113	0.3755	0.04
Mof_H 	H 	0.5352	0.3465	0.3963	0.01
Mof_C 	C 	0.5218	0.4096	0.3127	-0.086
Mof_H 	H 	0.5381	0.3443	0.2927	0.05
Mof_C 	C 	0.9794	0.0887	0.8755	0.044
Mof_H 	H 	0.9648	0.1535	0.8963	0.015
Mof_C 	C 	0.9782	0.0904	0.8127	-0.07
Mof_H 	H 	0.9619	0.1557	0.7927	0.05
Mof_C 	C 	0.4794	0.5887	0.3755	0.041
Mof_H 	H 	0.4648	0.6535	0.3963	0.01
Mof_C 	C 	0.4782	0.5904	0.3127	-0.086
Mof_H 	H 	0.4619	0.6557	0.2927	0.052
Mof_C 	C 	0.0887	0.0206	0.8755	0.028
Mof_H 	H 	0.1535	0.0352	0.8963	0.014
Mof_C 	C 	0.0904	0.0218	0.8127	-0.085
Mof_H 	H 	0.1557	0.0381	0.7927	0.048
Mof_C 	C 	0.5887	0.5206	0.3755	0.041
Mof_H 	H 	0.6535	0.5352	0.3963	0.011
Mof_C 	C 	0.5904	0.5218	0.3127	-0.086
Mof_H 	H 	0.6557	0.5381	0.2927	0.052
Mof_C 	C 	0.9113	0.9794	0.8755	0.052
Mof_H 	H 	0.8465	0.9648	0.8963	0.014
Mof_C 	C 	0.9096	0.9782	0.8127	-0.061
Mof_H 	H 	0.8443	0.9619	0.7927	0.049
Mof_C 	C 	0.4113	0.4794	0.3755	0.04
Mof_H 	H 	0.3465	0.4648	0.3963	0.01
Mof_C 	C 	0.4096	0.4782	0.3127	-0.086
Mof_H 	H 	0.3443	0.4619	0.2927	0.05
Mof_C 	C 	0.9794	0.9113	0.6245	0.054
Mof_H 	H 	0.9648	0.8465	0.6037	0.011
Mof_C 	C 	0.9782	0.9096	0.6873	-0.062
Mof_H 	H 	0.9619	0.8443	0.7073	0.049
Mof_C 	C 	0.4794	0.4113	0.1245	0.04
Mof_H 	H 	0.4648	0.3465	0.1037	0.01
Mof_C 	C 	0.4782	0.4096	0.1873	-0.086
Mof_H 	H 	0.4619	0.3443	0.2073	0.05
Mof_C 	C 	0.0206	0.0887	0.6245	0.028
Mof_H 	H 	0.0352	0.1535	0.6037	0.011
Mof_C 	C 	0.0218	0.0904	0.6873	-0.086
Mof_H 	H 	0.0381	0.1557	0.7073	0.048
Mof_C 	C 	0.5206	0.5887	0.1245	0.041
Mof_H 	H 	0.5352	0.6535	0.1037	0.011
Mof_C 	C 	0.5218	0.5904	0.1873	-0.085
Mof_H 	H 	0.5381	0.6557	0.2073	0.052
Mof_C 	C 	0.9113	0.0206	0.6245	0.044
Mof_H 	H 	0.8465	0.0352	0.6037	0.009
Mof_C 	C 	0.9096	0.0218	0.6873	-0.072
Mof_H 	H 	0.8443	0.0381	0.7073	0.046
Mof_C 	C 	0.4113	0.5206	0.1245	0.04
Mof_H 	H 	0.3465	0.5352	0.1037	0.01
Mof_C 	C 	0.4096	0.5218	0.1873	-0.085
Mof_H 	H 	0.3443	0.5381	0.2073	0.05
Mof_C 	C 	0.0887	0.9794	0.6245	0.045
Mof_H 	H 	0.1535	0.9648	0.6037	0.012
Mof_C 	C 	0.0904	0.9782	0.6873	-0.071
Mof_H 	H 	0.1557	0.9619	0.7073	0.05
Mof_C 	C 	0.5887	0.4794	0.1245	0.04
Mof_H 	H 	0.6535	0.4648	0.1037	0.011
Mof_C 	C 	0.5904	0.4782	0.1873	-0.086
Mof_H 	H 	0.6557	0.4619	0.2073	0.052
Mof_Fe	Fe	-0	0	-0	0.626
Mof_Fe	Fe	0.5	0.5	0.5	0.658
Mof_Fe	Fe	1.06872e-32	1.44179e-32	0.5	0.631
Mof_Fe	Fe	0.5	0.5	-0	0.654
Mof_N 	N 	0.10078	0.14069	-0	-0.205
Mof_C 	C 	0.13498	0.22685	-0	0.112
Mof_C 	C 	0.108	0.5287	-0	-0.041
Mof_H 	H 	0.1821	0.5493	-0	0.043
Mof_N 	N 	0.60078	0.64069	0.5	-0.207
Mof_C 	C 	0.63498	0.72685	0.5	0.128
Mof_C 	C 	0.608	0.0287	0.5	-0.112
Mof_H 	H 	0.6821	0.0493	0.5	0.065
Mof_N 	N 	0.89922	0.85931	-0	-0.198
Mof_C 	C 	0.86502	0.77315	-0	0.129
Mof_C 	C 	0.892	0.4713	-0	-0.102
Mof_H 	H 	0.8179	0.4507	-0	0.064
Mof_N 	N 	0.39922	0.35931	0.5	-0.204
Mof_C 	C 	0.36502	0.27315	0.5	0.118
Mof_C 	C 	0.392	0.9713	0.5	-0.03
Mof_H 	H 	0.3179	0.9507	0.5	0.045
Mof_N 	N 	0.85931	0.10078	-0	-0.2
Mof_C 	C 	0.77315	0.13498	-0	0.113
Mof_C 	C 	0.4713	0.108	-0	-0.042
Mof_H 	H 	0.4507	0.1821	-0	0.043
Mof_N 	N 	0.35931	0.60078	0.5	-0.204
Mof_C 	C 	0.27315	0.63498	0.5	0.118
Mof_C 	C 	0.9713	0.608	0.5	-0.031
Mof_H 	H 	0.9507	0.6821	0.5	0.045
Mof_N 	N 	0.14069	0.89922	-0	-0.202
Mof_C 	C 	0.22685	0.86502	-0	0.129
Mof_C 	C 	0.5287	0.892	-0	-0.101
Mof_H 	H 	0.5493	0.8179	-0	0.064
Mof_N 	N 	0.64069	0.39922	0.5	-0.207
Mof_C 	C 	0.72685	0.36502	0.5	0.128
Mof_C 	C 	0.0287	0.392	0.5	-0.112
Mof_H 	H 	0.0493	0.3179	0.5	0.065
Mof_N 	N 	0.89922	0.14069	0.5	-0.201
Mof_C 	C 	0.86502	0.22685	0.5	0.13
Mof_C 	C 	0.892	0.5287	0.5	-0.1
Mof_H 	H 	0.8179	0.5493	0.5	0.065
Mof_N 	N 	0.39922	0.64069	-0	-0.207
Mof_C 	C 	0.36502	0.72685	-0	0.126
Mof_C 	C 	0.392	0.0287	-0	-0.114
Mof_H 	H 	0.3179	0.0493	-0	0.065
Mof_N 	N 	0.10078	0.85931	0.5	-0.2
Mof_C 	C 	0.13498	0.77315	0.5	0.115
Mof_C 	C 	0.108	0.4713	0.5	-0.042
Mof_H 	H 	0.1821	0.4507	0.5	0.044
Mof_N 	N 	0.60078	0.35931	-0	-0.205
Mof_C 	C 	0.63498	0.27315	-0	0.117
Mof_C 	C 	0.608	0.9713	-0	-0.029
Mof_H 	H 	0.6821	0.9507	-0	0.044
Mof_N 	N 	0.14069	0.10078	0.5	-0.205
Mof_C 	C 	0.22685	0.13498	0.5	0.114
Mof_C 	C 	0.5287	0.108	0.5	-0.042
Mof_H 	H 	0.5493	0.1821	0.5	0.044
Mof_N 	N 	0.64069	0.60078	-0	-0.208
Mof_C 	C 	0.72685	0.63498	-0	0.127
Mof_C 	C 	0.0287	0.608	-0	-0.114
Mof_H 	H 	0.0493	0.6821	-0	0.065
Mof_N 	N 	0.85931	0.89922	0.5	-0.198
Mof_C 	C 	0.77315	0.86502	0.5	0.13
Mof_C 	C 	0.4713	0.892	0.5	-0.1
Mof_H 	H 	0.4507	0.8179	0.5	0.065
Mof_N 	N 	0.35931	0.39922	-0	-0.205
Mof_C 	C 	0.27315	0.36502	-0	0.116
Mof_C 	C 	0.9713	0.392	-0	-0.029
Mof_H 	H 	0.9507	0.3179	-0	0.044
Mof_N 	N 	4.26946e-33	1.80224e-33	0.09559	-0.207
Mof_C 	C 	5.11962e-33	3.60448e-33	0.2178	0.035
Mof_N 	N 	0.5	0.5	0.59559	-0.193
Mof_C 	C 	0.5	0.5	0.7178	0.072
Mof_N 	N 	1.00223e-32	7.20896e-33	0.40441	-0.207
Mof_C 	C 	5.56762e-33	3.60448e-33	0.2822	0.036
Mof_N 	N 	0.5	0.5	0.90441	-0.19
Mof_C 	C 	0.5	0.5	0.7822	0.069
Mof_N 	N 	6.29159e-33	0	0.90441	-0.203
Mof_C 	C 	5.44143e-33	1.44179e-32	0.7822	0.036
Mof_N 	N 	0.5	0.5	0.40441	-0.193
Mof_C 	C 	0.5	0.5	0.2822	0.071
Mof_N 	N 	1.85612e-32	0	0.59559	-0.206
Mof_C 	C 	1.94113e-32	1.44179e-32	0.7178	0.038
Mof_N 	N 	0.5	0.5	0.09559	-0.192
Mof_C 	C 	0.5	0.5	0.2178	0.071
Mof_C 	C 	0.16501	0.33499	-0	-0.125
Mof_C 	C 	0.08095	0.41905	-0	0.028
Mof_C 	C 	0.83499	0.66501	-0	-0.149
Mof_C 	C 	0.91905	0.58095	-0	0.101
Mof_C 	C 	0.33499	0.16501	0.5	-0.126
Mof_C 	C 	0.41905	0.08095	0.5	0.03
Mof_C 	C 	0.66501	0.16501	-0	-0.125
Mof_C 	C 	0.58095	0.08095	-0	0.028
Mof_C 	C 	0.33499	0.83499	-0	-0.149
Mof_C 	C 	0.41905	0.91905	-0	0.101
Mof_C 	C 	0.83499	0.33499	0.5	-0.149
Mof_C 	C 	0.91905	0.41905	0.5	0.1
Mof_C 	C 	0.16501	0.66501	0.5	-0.125
Mof_C 	C 	0.08095	0.58095	0.5	0.031
Mof_C 	C 	0.66501	0.83499	0.5	-0.148
Mof_C 	C 	0.58095	0.91905	0.5	0.1
_end
