data_functionalizedCrystal
_audit_creation_method	'EQeq! by Chris Wilmer'
_symmetry_space_group_name_H-M	'P1'
_symmetry_Int_Tables_number	1
_symmetry_cell_setting	triclinic
loop_
_symmetry_equiv_pos_as_xyz
  x,y,z
_cell_length_a	15.387
_cell_length_b	15.387
_cell_length_c	9.5846
_cell_angle_alpha	90
_cell_angle_beta	90
_cell_angle_gamma	90
loop_
_atom_site_label
_atom_site_type_symbol
_atom_site_fract_x
_atom_site_fract_y
_atom_site_fract_z
_atom_site_charge
Mof_C 	C 	0.3331	0.2331	0.577	-0.043
Mof_H 	H 	0.3628	0.2274	0.4869	0.039
Mof_H 	H 	0.3789	0.2247	0.6467	0.028
Mof_C 	C 	0.301	0.1778	0.5828	-0.038
Mof_H 	H 	0.3189	0.1519	0.6717	0.02
Mof_H 	H 	0.3261	0.141	0.5099	0.019
Mof_O 	O 	0.1719	0.1468	0.8861	-0.405
Mof_C 	C 	0.0073	0.0545	0.1114	-0.014
Mof_H 	H 	0.0122	0.0921	0.1883	0.045
Mof_C 	C 	0.1669	0.2669	0.577	-0.042
Mof_H 	H 	0.1372	0.2726	0.4869	0.04
Mof_H 	H 	0.1211	0.2753	0.6467	0.027
Mof_C 	C 	0.199	0.3222	0.5828	-0.038
Mof_H 	H 	0.1811	0.3481	0.6717	0.02
Mof_H 	H 	0.1739	0.359	0.5099	0.019
Mof_O 	O 	0.3281	0.3532	0.8861	-0.405
Mof_C 	C 	0.4927	0.4455	0.1114	-0.013
Mof_H 	H 	0.4878	0.4079	0.1883	0.045
Mof_C 	C 	0.2669	0.3331	0.577	-0.042
Mof_H 	H 	0.2726	0.3628	0.4869	0.04
Mof_H 	H 	0.2753	0.3789	0.6467	0.028
Mof_C 	C 	0.3222	0.301	0.5828	-0.038
Mof_H 	H 	0.3481	0.3189	0.6717	0.02
Mof_H 	H 	0.359	0.3261	0.5099	0.019
Mof_O 	O 	0.3532	0.1719	0.8861	-0.405
Mof_C 	C 	0.4455	0.0073	0.1114	-0.013
Mof_H 	H 	0.4079	0.0122	0.1883	0.045
Mof_C 	C 	0.2331	0.1669	0.577	-0.042
Mof_H 	H 	0.2274	0.1372	0.4869	0.04
Mof_H 	H 	0.2247	0.1211	0.6467	0.027
Mof_C 	C 	0.1778	0.199	0.5828	-0.038
Mof_H 	H 	0.1519	0.1811	0.6717	0.02
Mof_H 	H 	0.141	0.1739	0.5099	0.019
Mof_O 	O 	0.1468	0.3281	0.8861	-0.405
Mof_C 	C 	0.0545	0.4927	0.1114	-0.014
Mof_H 	H 	0.0921	0.4878	0.1883	0.045
Mof_C 	C 	0.1669	0.2331	0.423	-0.042
Mof_H 	H 	0.1372	0.2274	0.5131	0.041
Mof_H 	H 	0.1211	0.2247	0.3533	0.025
Mof_C 	C 	0.199	0.1778	0.4172	-0.037
Mof_H 	H 	0.1811	0.1519	0.3283	0.017
Mof_H 	H 	0.1739	0.141	0.4901	0.019
Mof_O 	O 	0.3281	0.1468	0.1139	-0.455
Mof_C 	C 	0.4927	0.0545	0.8886	0.044
Mof_H 	H 	0.4878	0.0921	0.8117	0.039
Mof_C 	C 	0.3331	0.2669	0.423	-0.042
Mof_H 	H 	0.3628	0.2726	0.5131	0.041
Mof_H 	H 	0.3789	0.2753	0.3533	0.025
Mof_C 	C 	0.301	0.3222	0.4172	-0.037
Mof_H 	H 	0.3189	0.3481	0.3283	0.017
Mof_H 	H 	0.3261	0.359	0.4901	0.019
Mof_O 	O 	0.1719	0.3532	0.1139	-0.455
Mof_C 	C 	0.0073	0.4455	0.8886	0.043
Mof_H 	H 	0.0122	0.4079	0.8117	0.039
Mof_C 	C 	0.2331	0.3331	0.423	-0.042
Mof_H 	H 	0.2274	0.3628	0.5131	0.041
Mof_H 	H 	0.2247	0.3789	0.3533	0.025
Mof_C 	C 	0.1778	0.301	0.4172	-0.037
Mof_H 	H 	0.1519	0.3189	0.3283	0.017
Mof_H 	H 	0.141	0.3261	0.4901	0.019
Mof_O 	O 	0.1468	0.1719	0.1139	-0.455
Mof_C 	C 	0.0545	0.0073	0.8886	0.043
Mof_H 	H 	0.0921	0.0122	0.8117	0.039
Mof_C 	C 	0.2669	0.1669	0.423	-0.042
Mof_H 	H 	0.2726	0.1372	0.5131	0.041
Mof_H 	H 	0.2753	0.1211	0.3533	0.025
Mof_C 	C 	0.3222	0.199	0.4172	-0.037
Mof_H 	H 	0.3481	0.1811	0.3283	0.017
Mof_H 	H 	0.359	0.1739	0.4901	0.019
Mof_O 	O 	0.3532	0.3281	0.1139	-0.455
Mof_C 	C 	0.4455	0.4927	0.8886	0.045
Mof_H 	H 	0.4079	0.4878	0.8117	0.038
Mof_C 	C 	0.6669	0.7669	0.423	-0.042
Mof_H 	H 	0.6372	0.7726	0.5131	0.041
Mof_H 	H 	0.6211	0.7753	0.3533	0.025
Mof_C 	C 	0.699	0.8222	0.4172	-0.037
Mof_H 	H 	0.6811	0.8481	0.3283	0.017
Mof_H 	H 	0.6739	0.859	0.4901	0.019
Mof_O 	O 	0.8281	0.8532	0.1139	-0.455
Mof_C 	C 	0.9927	0.9455	0.8886	0.043
Mof_H 	H 	0.9878	0.9079	0.8117	0.039
Mof_C 	C 	0.8331	0.7331	0.423	-0.042
Mof_H 	H 	0.8628	0.7274	0.5131	0.041
Mof_H 	H 	0.8789	0.7247	0.3533	0.025
Mof_C 	C 	0.801	0.6778	0.4172	-0.037
Mof_H 	H 	0.8189	0.6519	0.3283	0.017
Mof_H 	H 	0.8261	0.641	0.4901	0.019
Mof_O 	O 	0.6719	0.6468	0.1139	-0.455
Mof_C 	C 	0.5073	0.5545	0.8886	0.045
Mof_H 	H 	0.5122	0.5921	0.8117	0.038
Mof_C 	C 	0.7331	0.6669	0.423	-0.042
Mof_H 	H 	0.7274	0.6372	0.5131	0.041
Mof_H 	H 	0.7247	0.6211	0.3533	0.025
Mof_C 	C 	0.6778	0.699	0.4172	-0.037
Mof_H 	H 	0.6519	0.6811	0.3283	0.017
Mof_H 	H 	0.641	0.6739	0.4901	0.019
Mof_O 	O 	0.6468	0.8281	0.1139	-0.455
Mof_C 	C 	0.5545	0.9927	0.8886	0.043
Mof_H 	H 	0.5921	0.9878	0.8117	0.039
Mof_C 	C 	0.7669	0.8331	0.423	-0.042
Mof_H 	H 	0.7726	0.8628	0.5131	0.041
Mof_H 	H 	0.7753	0.8789	0.3533	0.025
Mof_C 	C 	0.8222	0.801	0.4172	-0.037
Mof_H 	H 	0.8481	0.8189	0.3283	0.017
Mof_H 	H 	0.859	0.8261	0.4901	0.019
Mof_O 	O 	0.8532	0.6719	0.1139	-0.455
Mof_C 	C 	0.9455	0.5073	0.8886	0.044
Mof_H 	H 	0.9079	0.5122	0.8117	0.039
Mof_C 	C 	0.8331	0.7669	0.577	-0.042
Mof_H 	H 	0.8628	0.7726	0.4869	0.04
Mof_H 	H 	0.8789	0.7753	0.6467	0.027
Mof_C 	C 	0.801	0.8222	0.5828	-0.038
Mof_H 	H 	0.8189	0.8481	0.6717	0.02
Mof_H 	H 	0.8261	0.859	0.5099	0.019
Mof_O 	O 	0.6719	0.8532	0.8861	-0.405
Mof_C 	C 	0.5073	0.9455	0.1114	-0.014
Mof_H 	H 	0.5122	0.9079	0.1883	0.045
Mof_C 	C 	0.6669	0.7331	0.577	-0.042
Mof_H 	H 	0.6372	0.7274	0.4869	0.04
Mof_H 	H 	0.6211	0.7247	0.6467	0.028
Mof_C 	C 	0.699	0.6778	0.5828	-0.038
Mof_H 	H 	0.6811	0.6519	0.6717	0.02
Mof_H 	H 	0.6739	0.641	0.5099	0.019
Mof_O 	O 	0.8281	0.6468	0.8861	-0.405
Mof_C 	C 	0.9927	0.5545	0.1114	-0.013
Mof_H 	H 	0.9878	0.5921	0.1883	0.045
Mof_C 	C 	0.7669	0.6669	0.577	-0.042
Mof_H 	H 	0.7726	0.6372	0.4869	0.04
Mof_H 	H 	0.7753	0.6211	0.6467	0.028
Mof_C 	C 	0.8222	0.699	0.5828	-0.038
Mof_H 	H 	0.8481	0.6811	0.6717	0.02
Mof_H 	H 	0.859	0.6739	0.5099	0.019
Mof_O 	O 	0.8532	0.8281	0.8861	-0.405
Mof_C 	C 	0.9455	0.9927	0.1114	-0.014
Mof_H 	H 	0.9079	0.9878	0.1883	0.045
Mof_C 	C 	0.7331	0.8331	0.577	-0.042
Mof_H 	H 	0.7274	0.8628	0.4869	0.04
Mof_H 	H 	0.7247	0.8789	0.6467	0.027
Mof_C 	C 	0.6778	0.801	0.5828	-0.038
Mof_H 	H 	0.6519	0.8189	0.6717	0.02
Mof_H 	H 	0.641	0.8261	0.5099	0.019
Mof_O 	O 	0.6468	0.6719	0.8861	-0.405
Mof_C 	C 	0.5545	0.5073	0.1114	-0.013
Mof_H 	H 	0.5921	0.5122	0.1883	0.045
Mof_Zn	Zn	0.25	0.25	0.84938	1.215
Mof_N 	N 	0.25	0.25	0.6337	-0.175
Mof_Zn	Zn	0.25	0.25	0.15062	1.207
Mof_N 	N 	0.25	0.25	0.3663	-0.175
Mof_Zn	Zn	0.75	0.75	0.15062	1.207
Mof_N 	N 	0.75	0.75	0.3663	-0.175
Mof_Zn	Zn	0.75	0.75	0.84938	1.215
Mof_N 	N 	0.75	0.75	0.6337	-0.175
Mof_C 	C 	0.1331	0.1331	-0	0.307
Mof_C 	C 	0.0637	0.0637	-0	-0.127
Mof_C 	C 	0.3669	0.3669	-0	0.306
Mof_C 	C 	0.4363	0.4363	-0	-0.129
Mof_C 	C 	0.3669	0.1331	-0	0.307
Mof_C 	C 	0.4363	0.0637	-0	-0.128
Mof_C 	C 	0.1331	0.3669	-0	0.307
Mof_C 	C 	0.0637	0.4363	-0	-0.128
Mof_C 	C 	0.8669	0.8669	-0	0.307
Mof_C 	C 	0.9363	0.9363	-0	-0.127
Mof_C 	C 	0.6331	0.6331	-0	0.306
Mof_C 	C 	0.5637	0.5637	-0	-0.129
Mof_C 	C 	0.6331	0.8669	-0	0.307
Mof_C 	C 	0.5637	0.9363	-0	-0.128
Mof_C 	C 	0.8669	0.6331	-0	0.307
Mof_C 	C 	0.9363	0.5637	-0	-0.128
_end
