data_functionalizedCrystal
_audit_creation_method	'EQeq! by Chris Wilmer'
_symmetry_space_group_name_H-M	'P1'
_symmetry_Int_Tables_number	1
_symmetry_cell_setting	triclinic
loop_
_symmetry_equiv_pos_as_xyz
  x,y,z
_cell_length_a	13.4677
_cell_length_b	13.4677
_cell_length_c	13.4677
_cell_angle_alpha	90
_cell_angle_beta	90
_cell_angle_gamma	90
loop_
_atom_site_label
_atom_site_type_symbol
_atom_site_fract_x
_atom_site_fract_y
_atom_site_fract_z
_atom_site_charge
Mof_Cd	Cd	-0	0.5	-0	0.494
Mof_Cd	Cd	1.8747e-33	5.16702e-33	0.5	0.494
Mof_Cd	Cd	0.5	0	-0	0.494
Mof_Cd	Cd	0.5	0.5	0.5	0.651
Mof_H 	H 	0.709	0.4223	0.7906	0.148
Mof_H 	H 	0.291	0.5777	0.7906	0.141
Mof_H 	H 	0.291	0.4223	0.2094	0.115
Mof_H 	H 	0.709	0.5777	0.2094	0.135
Mof_H 	H 	0.7906	0.709	0.4223	0.149
Mof_H 	H 	0.7906	0.291	0.5777	0.142
Mof_H 	H 	0.2094	0.291	0.4223	0.116
Mof_H 	H 	0.2094	0.709	0.5777	0.136
Mof_H 	H 	0.4223	0.7906	0.709	0.149
Mof_H 	H 	0.5777	0.7906	0.291	0.142
Mof_H 	H 	0.4223	0.2094	0.291	0.116
Mof_H 	H 	0.5777	0.2094	0.709	0.136
Mof_H 	H 	0.4223	0.709	0.7906	0.149
Mof_H 	H 	0.5777	0.291	0.7906	0.142
Mof_H 	H 	0.4223	0.291	0.2094	0.116
Mof_H 	H 	0.5777	0.709	0.2094	0.136
Mof_H 	H 	0.709	0.7906	0.4223	0.149
Mof_H 	H 	0.291	0.7906	0.5777	0.142
Mof_H 	H 	0.291	0.2094	0.4223	0.116
Mof_H 	H 	0.709	0.2094	0.5777	0.136
Mof_H 	H 	0.7906	0.4223	0.709	0.149
Mof_H 	H 	0.7906	0.5777	0.291	0.142
Mof_H 	H 	0.2094	0.4223	0.291	0.116
Mof_H 	H 	0.2094	0.5777	0.709	0.136
Mof_H 	H 	0.7081	0.2919	0.925	0.134
Mof_H 	H 	0.7921	0.2079	0.9249	0.125
Mof_H 	H 	0.2919	0.7081	0.925	0.134
Mof_H 	H 	0.2079	0.7921	0.9249	0.125
Mof_H 	H 	0.2919	0.2919	0.075	0.095
Mof_H 	H 	0.2079	0.2079	0.0751	0.078
Mof_H 	H 	0.7081	0.7081	0.075	0.115
Mof_H 	H 	0.7921	0.7921	0.0751	0.112
Mof_H 	H 	0.925	0.7081	0.2919	0.134
Mof_H 	H 	0.9249	0.7921	0.2079	0.125
Mof_H 	H 	0.925	0.2919	0.7081	0.134
Mof_H 	H 	0.9249	0.2079	0.7921	0.125
Mof_H 	H 	0.075	0.2919	0.2919	0.095
Mof_H 	H 	0.0751	0.2079	0.2079	0.078
Mof_H 	H 	0.075	0.7081	0.7081	0.115
Mof_H 	H 	0.0751	0.7921	0.7921	0.112
Mof_H 	H 	0.2919	0.925	0.7081	0.134
Mof_H 	H 	0.2079	0.9249	0.7921	0.125
Mof_H 	H 	0.7081	0.925	0.2919	0.134
Mof_H 	H 	0.7921	0.9249	0.2079	0.125
Mof_H 	H 	0.2919	0.075	0.2919	0.095
Mof_H 	H 	0.2079	0.0751	0.2079	0.078
Mof_H 	H 	0.7081	0.075	0.7081	0.115
Mof_H 	H 	0.7921	0.0751	0.7921	0.112
Mof_C 	C 	0.8812	0.3847	0.8812	0.311
Mof_C 	C 	0.8177	0.3176	0.8177	0.091
Mof_C 	C 	0.7497	0.3811	0.7497	-0.262
Mof_C 	C 	0.1188	0.6153	0.8812	0.339
Mof_C 	C 	0.1823	0.6824	0.8177	0.073
Mof_C 	C 	0.2503	0.6189	0.7497	-0.248
Mof_C 	C 	0.1188	0.3847	0.1188	0.387
Mof_C 	C 	0.1823	0.3176	0.1823	0.011
Mof_C 	C 	0.2503	0.3811	0.2503	-0.189
Mof_C 	C 	0.8812	0.6153	0.1188	0.339
Mof_C 	C 	0.8177	0.6824	0.1823	0.073
Mof_C 	C 	0.7497	0.6189	0.2503	-0.248
Mof_C 	C 	0.8812	0.8812	0.3847	0.311
Mof_C 	C 	0.8177	0.8177	0.3176	0.091
Mof_C 	C 	0.7497	0.7497	0.3811	-0.262
Mof_C 	C 	0.8812	0.1188	0.6153	0.339
Mof_C 	C 	0.8177	0.1823	0.6824	0.073
Mof_C 	C 	0.7497	0.2503	0.6189	-0.248
Mof_C 	C 	0.1188	0.1188	0.3847	0.387
Mof_C 	C 	0.1823	0.1823	0.3176	0.011
Mof_C 	C 	0.2503	0.2503	0.3811	-0.189
Mof_C 	C 	0.1188	0.8812	0.6153	0.339
Mof_C 	C 	0.1823	0.8177	0.6824	0.073
Mof_C 	C 	0.2503	0.7497	0.6189	-0.248
Mof_C 	C 	0.3847	0.8812	0.8812	0.311
Mof_C 	C 	0.3176	0.8177	0.8177	0.091
Mof_C 	C 	0.3811	0.7497	0.7497	-0.262
Mof_C 	C 	0.6153	0.8812	0.1188	0.339
Mof_C 	C 	0.6824	0.8177	0.1823	0.073
Mof_C 	C 	0.6189	0.7497	0.2503	-0.248
Mof_C 	C 	0.3847	0.1188	0.1188	0.387
Mof_C 	C 	0.3176	0.1823	0.1823	0.011
Mof_C 	C 	0.3811	0.2503	0.2503	-0.189
Mof_C 	C 	0.6153	0.1188	0.8812	0.339
Mof_C 	C 	0.6824	0.1823	0.8177	0.073
Mof_C 	C 	0.6189	0.2503	0.7497	-0.248
Mof_C 	C 	0.6185	0.3815	0.6185	0.431
Mof_C 	C 	0.6828	0.3172	0.6828	0.082
Mof_C 	C 	0.3815	0.6185	0.6185	0.431
Mof_C 	C 	0.3172	0.6828	0.6828	0.082
Mof_C 	C 	0.3815	0.3815	0.3815	0.458
Mof_C 	C 	0.3172	0.3172	0.3172	0.029
Mof_C 	C 	0.6185	0.6185	0.3815	0.431
Mof_C 	C 	0.6828	0.6828	0.3172	0.082
Mof_C 	C 	0.7501	0.2499	0.8817	-0.213
Mof_C 	C 	0.2499	0.7501	0.8817	-0.213
Mof_C 	C 	0.2499	0.2499	0.1183	-0.139
Mof_C 	C 	0.7501	0.7501	0.1183	-0.198
Mof_C 	C 	0.8817	0.7501	0.2499	-0.213
Mof_C 	C 	0.8817	0.2499	0.7501	-0.213
Mof_C 	C 	0.1183	0.2499	0.2499	-0.139
Mof_C 	C 	0.1183	0.7501	0.7501	-0.198
Mof_C 	C 	0.2499	0.8817	0.7501	-0.213
Mof_C 	C 	0.7501	0.8817	0.2499	-0.213
Mof_C 	C 	0.2499	0.1183	0.2499	-0.139
Mof_C 	C 	0.7501	0.1183	0.7501	-0.198
Mof_O 	O 	0.843	0.4398	0.9432	-0.112
Mof_O 	O 	0.9713	0.384	0.873	-0.125
Mof_O 	O 	0.157	0.5602	0.9432	-0.12
Mof_O 	O 	0.0287	0.616	0.873	-0.158
Mof_O 	O 	0.157	0.4398	0.0568	-0.152
Mof_O 	O 	0.0287	0.384	0.127	-0.194
Mof_O 	O 	0.843	0.5602	0.0568	-0.144
Mof_O 	O 	0.9713	0.616	0.127	-0.149
Mof_O 	O 	0.9432	0.843	0.4398	-0.112
Mof_O 	O 	0.873	0.9713	0.384	-0.125
Mof_O 	O 	0.9432	0.157	0.5602	-0.12
Mof_O 	O 	0.873	0.0287	0.616	-0.158
Mof_O 	O 	0.0568	0.157	0.4398	-0.152
Mof_O 	O 	0.127	0.0287	0.384	-0.194
Mof_O 	O 	0.0568	0.843	0.5602	-0.144
Mof_O 	O 	0.127	0.9713	0.616	-0.149
Mof_O 	O 	0.4398	0.9432	0.843	-0.112
Mof_O 	O 	0.384	0.873	0.9713	-0.125
Mof_O 	O 	0.5602	0.9432	0.157	-0.12
Mof_O 	O 	0.616	0.873	0.0287	-0.158
Mof_O 	O 	0.4398	0.0568	0.157	-0.152
Mof_O 	O 	0.384	0.127	0.0287	-0.194
Mof_O 	O 	0.5602	0.0568	0.843	-0.144
Mof_O 	O 	0.616	0.127	0.9713	-0.149
Mof_O 	O 	0.4398	0.843	0.9432	-0.112
Mof_O 	O 	0.384	0.9713	0.873	-0.125
Mof_O 	O 	0.5602	0.157	0.9432	-0.12
Mof_O 	O 	0.616	0.0287	0.873	-0.158
Mof_O 	O 	0.4398	0.157	0.0568	-0.152
Mof_O 	O 	0.384	0.0287	0.127	-0.194
Mof_O 	O 	0.5602	0.843	0.0568	-0.144
Mof_O 	O 	0.616	0.9713	0.127	-0.149
Mof_O 	O 	0.843	0.9432	0.4398	-0.112
Mof_O 	O 	0.9713	0.873	0.384	-0.125
Mof_O 	O 	0.157	0.9432	0.5602	-0.12
Mof_O 	O 	0.0287	0.873	0.616	-0.158
Mof_O 	O 	0.157	0.0568	0.4398	-0.152
Mof_O 	O 	0.0287	0.127	0.384	-0.194
Mof_O 	O 	0.843	0.0568	0.5602	-0.144
Mof_O 	O 	0.9713	0.127	0.616	-0.149
Mof_O 	O 	0.9432	0.4398	0.843	-0.112
Mof_O 	O 	0.873	0.384	0.9713	-0.125
Mof_O 	O 	0.9432	0.5602	0.157	-0.12
Mof_O 	O 	0.873	0.616	0.0287	-0.158
Mof_O 	O 	0.0568	0.4398	0.157	-0.152
Mof_O 	O 	0.127	0.384	0.0287	-0.194
Mof_O 	O 	0.0568	0.5602	0.843	-0.144
Mof_O 	O 	0.127	0.616	0.9713	-0.149
Mof_O 	O 	0.559	0.441	0.6583	-0.103
Mof_O 	O 	0.626	0.374	0.5277	-0.143
Mof_O 	O 	0.441	0.559	0.6583	-0.103
Mof_O 	O 	0.374	0.626	0.5277	-0.143
Mof_O 	O 	0.441	0.441	0.3417	-0.109
Mof_O 	O 	0.374	0.374	0.4723	-0.148
Mof_O 	O 	0.559	0.559	0.3417	-0.106
Mof_O 	O 	0.626	0.626	0.4723	-0.14
Mof_O 	O 	0.6583	0.559	0.441	-0.103
Mof_O 	O 	0.5277	0.626	0.374	-0.143
Mof_O 	O 	0.6583	0.441	0.559	-0.103
Mof_O 	O 	0.5277	0.374	0.626	-0.143
Mof_O 	O 	0.3417	0.441	0.441	-0.109
Mof_O 	O 	0.4723	0.374	0.374	-0.148
Mof_O 	O 	0.3417	0.559	0.559	-0.106
Mof_O 	O 	0.4723	0.626	0.626	-0.14
Mof_O 	O 	0.441	0.6583	0.559	-0.103
Mof_O 	O 	0.374	0.5277	0.626	-0.143
Mof_O 	O 	0.559	0.6583	0.441	-0.103
Mof_O 	O 	0.626	0.5277	0.374	-0.143
Mof_O 	O 	0.441	0.3417	0.441	-0.109
Mof_O 	O 	0.374	0.4723	0.374	-0.148
Mof_O 	O 	0.559	0.3417	0.559	-0.106
Mof_O 	O 	0.626	0.4723	0.626	-0.14
_end
