data_functionalizedCrystal
_audit_creation_method	'EQeq! by Chris Wilmer'
_symmetry_space_group_name_H-M	'P1'
_symmetry_Int_Tables_number	1
_symmetry_cell_setting	triclinic
loop_
_symmetry_equiv_pos_as_xyz
  x,y,z
_cell_length_a	14.9756
_cell_length_b	14.9756
_cell_length_c	19.2026
_cell_angle_alpha	90
_cell_angle_beta	90
_cell_angle_gamma	90
loop_
_atom_site_label
_atom_site_type_symbol
_atom_site_fract_x
_atom_site_fract_y
_atom_site_fract_z
_atom_site_charge
Mof_O 	O 	0.13309	0.18466	0.31601	-0.459
Mof_O 	O 	0.12249	0.20994	0.20157	-0.462
Mof_C 	C 	0.09727	0.17448	0.25739	0.381
Mof_C 	C 	0.01896	0.11238	0.25395	-0.079
Mof_C 	C 	0.9818	0.0777	0.31446	-0.011
Mof_H 	H 	0.0015	0.0984	0.3586	0.048
Mof_C 	C 	0.98703	0.084	0.18955	-0.012
Mof_H 	H 	0.0098	0.11	0.1481	0.047
Mof_C 	C 	0.1964	0.1759	0.4684	0.012
Mof_H 	H 	0.2205	0.1188	0.4505	0.035
Mof_H 	H 	0.1342	0.182	0.4518	0.012
Mof_C 	C 	0.1613	0.233	0.4689	-0.055
Mof_H 	H 	0.1403	0.1742	0.4528	0.021
Mof_C 	C 	0.1974	0.1746	0.547	0.009
Mof_H 	H 	0.2234	0.1175	0.5633	0.011
Mof_H 	H 	0.1353	0.1782	0.5646	0.033
Mof_C 	C 	0.264	0.1613	0.5486	-0.052
Mof_H 	H 	0.2156	0.1216	0.5649	0.021
Mof_O 	O 	0.36691	0.31534	0.31601	-0.46
Mof_O 	O 	0.37751	0.29006	0.20157	-0.463
Mof_C 	C 	0.40273	0.32552	0.25739	0.38
Mof_C 	C 	0.48104	0.38762	0.25395	-0.079
Mof_C 	C 	0.5182	0.4223	0.31446	-0.013
Mof_H 	H 	0.4985	0.4016	0.3586	0.048
Mof_C 	C 	0.51297	0.416	0.18955	-0.014
Mof_H 	H 	0.4902	0.39	0.1481	0.046
Mof_C 	C 	0.3036	0.3241	0.4684	0.011
Mof_H 	H 	0.2795	0.3812	0.4505	0.034
Mof_H 	H 	0.3658	0.318	0.4518	0.012
Mof_C 	C 	0.3387	0.267	0.4689	-0.055
Mof_H 	H 	0.3597	0.3258	0.4528	0.021
Mof_C 	C 	0.3026	0.3254	0.547	0.009
Mof_H 	H 	0.2766	0.3825	0.5633	0.011
Mof_H 	H 	0.3647	0.3218	0.5646	0.033
Mof_C 	C 	0.236	0.3387	0.5486	-0.052
Mof_H 	H 	0.2844	0.3784	0.5649	0.021
Mof_O 	O 	0.31534	0.13309	0.31601	-0.46
Mof_O 	O 	0.29006	0.12249	0.20157	-0.463
Mof_C 	C 	0.32552	0.09727	0.25739	0.38
Mof_C 	C 	0.38762	0.01896	0.25395	-0.079
Mof_C 	C 	0.4223	0.9818	0.31446	-0.012
Mof_H 	H 	0.4016	0.0015	0.3586	0.047
Mof_C 	C 	0.416	0.98703	0.18955	-0.013
Mof_H 	H 	0.39	0.0098	0.1481	0.046
Mof_C 	C 	0.3241	0.1964	0.4684	0.011
Mof_H 	H 	0.3812	0.2205	0.4505	0.034
Mof_H 	H 	0.318	0.1342	0.4518	0.012
Mof_C 	C 	0.267	0.1613	0.4689	-0.055
Mof_H 	H 	0.3258	0.1403	0.4528	0.021
Mof_C 	C 	0.3254	0.1974	0.547	0.009
Mof_H 	H 	0.3825	0.2234	0.5633	0.011
Mof_H 	H 	0.3218	0.1353	0.5646	0.033
Mof_C 	C 	0.3387	0.264	0.5486	-0.052
Mof_H 	H 	0.3784	0.2156	0.5649	0.021
Mof_O 	O 	0.18466	0.36691	0.31601	-0.46
Mof_O 	O 	0.20994	0.37751	0.20157	-0.463
Mof_C 	C 	0.17448	0.40273	0.25739	0.38
Mof_C 	C 	0.11238	0.48104	0.25395	-0.079
Mof_C 	C 	0.0777	0.5182	0.31446	-0.013
Mof_H 	H 	0.0984	0.4985	0.3586	0.048
Mof_C 	C 	0.084	0.51297	0.18955	-0.014
Mof_H 	H 	0.11	0.4902	0.1481	0.046
Mof_C 	C 	0.1759	0.3036	0.4684	0.011
Mof_H 	H 	0.1188	0.2795	0.4505	0.034
Mof_H 	H 	0.182	0.3658	0.4518	0.012
Mof_C 	C 	0.233	0.3387	0.4689	-0.055
Mof_H 	H 	0.1742	0.3597	0.4528	0.021
Mof_C 	C 	0.1746	0.3026	0.547	0.009
Mof_H 	H 	0.1175	0.2766	0.5633	0.011
Mof_H 	H 	0.1782	0.3647	0.5646	0.033
Mof_C 	C 	0.1613	0.236	0.5486	-0.052
Mof_H 	H 	0.1216	0.2844	0.5649	0.021
Mof_O 	O 	0.86691	0.68466	0.18399	-0.46
Mof_O 	O 	0.87751	0.70994	0.29843	-0.463
Mof_C 	C 	0.90273	0.67448	0.24261	0.38
Mof_C 	C 	0.98104	0.61238	0.24605	-0.079
Mof_C 	C 	0.0182	0.5777	0.18554	-0.012
Mof_H 	H 	0.9985	0.5984	0.1414	0.047
Mof_C 	C 	0.01297	0.584	0.31045	-0.013
Mof_H 	H 	0.9902	0.61	0.3519	0.046
Mof_C 	C 	0.8036	0.6759	0.0316	0.011
Mof_H 	H 	0.7795	0.6188	0.0495	0.034
Mof_H 	H 	0.8658	0.682	0.0482	0.012
Mof_C 	C 	0.8387	0.733	0.0311	-0.055
Mof_H 	H 	0.8597	0.6742	0.0472	0.021
Mof_C 	C 	0.8026	0.6746	0.953	0.009
Mof_H 	H 	0.7766	0.6175	0.9367	0.011
Mof_H 	H 	0.8647	0.6782	0.9354	0.033
Mof_C 	C 	0.736	0.6613	0.9514	-0.052
Mof_H 	H 	0.7844	0.6216	0.9351	0.021
Mof_O 	O 	0.63309	0.81534	0.18399	-0.46
Mof_O 	O 	0.62249	0.79006	0.29843	-0.463
Mof_C 	C 	0.59727	0.82552	0.24261	0.38
Mof_C 	C 	0.51896	0.88762	0.24605	-0.079
Mof_C 	C 	0.4818	0.9223	0.18554	-0.013
Mof_H 	H 	0.5015	0.9016	0.1414	0.048
Mof_C 	C 	0.48703	0.916	0.31045	-0.014
Mof_H 	H 	0.5098	0.89	0.3519	0.047
Mof_C 	C 	0.6964	0.8241	0.0316	0.011
Mof_H 	H 	0.7205	0.8812	0.0495	0.034
Mof_H 	H 	0.6342	0.818	0.0482	0.012
Mof_C 	C 	0.6613	0.767	0.0311	-0.055
Mof_H 	H 	0.6403	0.8258	0.0472	0.021
Mof_C 	C 	0.6974	0.8254	0.953	0.009
Mof_H 	H 	0.7234	0.8825	0.9367	0.011
Mof_H 	H 	0.6353	0.8218	0.9354	0.033
Mof_C 	C 	0.764	0.8387	0.9514	-0.052
Mof_H 	H 	0.7156	0.8784	0.9351	0.021
Mof_O 	O 	0.68466	0.63309	0.18399	-0.46
Mof_O 	O 	0.70994	0.62249	0.29843	-0.463
Mof_C 	C 	0.67448	0.59727	0.24261	0.38
Mof_C 	C 	0.61238	0.51896	0.24605	-0.079
Mof_C 	C 	0.5777	0.4818	0.18554	-0.013
Mof_H 	H 	0.5984	0.5015	0.1414	0.048
Mof_C 	C 	0.584	0.48703	0.31045	-0.014
Mof_H 	H 	0.61	0.5098	0.3519	0.046
Mof_C 	C 	0.6759	0.6964	0.0316	0.011
Mof_H 	H 	0.6188	0.7205	0.0495	0.034
Mof_H 	H 	0.682	0.6342	0.0482	0.012
Mof_C 	C 	0.733	0.6613	0.0311	-0.055
Mof_H 	H 	0.6742	0.6403	0.0472	0.021
Mof_C 	C 	0.6746	0.6974	0.953	0.009
Mof_H 	H 	0.6175	0.7234	0.9367	0.011
Mof_H 	H 	0.6782	0.6353	0.9354	0.033
Mof_C 	C 	0.6613	0.764	0.9514	-0.052
Mof_H 	H 	0.6216	0.7156	0.9351	0.021
Mof_O 	O 	0.81534	0.86691	0.18399	-0.46
Mof_O 	O 	0.79006	0.87751	0.29843	-0.463
Mof_C 	C 	0.82552	0.90273	0.24261	0.38
Mof_C 	C 	0.88762	0.98104	0.24605	-0.08
Mof_C 	C 	0.9223	0.0182	0.18554	-0.012
Mof_H 	H 	0.9016	0.9985	0.1414	0.047
Mof_C 	C 	0.916	0.01297	0.31045	-0.013
Mof_H 	H 	0.89	0.9902	0.3519	0.046
Mof_C 	C 	0.8241	0.8036	0.0316	0.011
Mof_H 	H 	0.8812	0.7795	0.0495	0.034
Mof_H 	H 	0.818	0.8658	0.0482	0.012
Mof_C 	C 	0.767	0.8387	0.0311	-0.055
Mof_H 	H 	0.8258	0.8597	0.0472	0.021
Mof_C 	C 	0.8254	0.8026	0.953	0.009
Mof_H 	H 	0.8825	0.7766	0.9367	0.011
Mof_H 	H 	0.8218	0.8647	0.9354	0.033
Mof_C 	C 	0.8387	0.736	0.9514	-0.052
Mof_H 	H 	0.8784	0.7844	0.9351	0.021
Mof_O 	O 	0.86691	0.81534	0.68399	-0.46
Mof_O 	O 	0.87751	0.79006	0.79843	-0.463
Mof_C 	C 	0.90273	0.82552	0.74261	0.38
Mof_C 	C 	0.98104	0.88762	0.74605	-0.08
Mof_C 	C 	0.0182	0.9223	0.68554	-0.012
Mof_H 	H 	0.9985	0.9016	0.6414	0.047
Mof_C 	C 	0.01297	0.916	0.81045	-0.013
Mof_H 	H 	0.9902	0.89	0.8519	0.046
Mof_C 	C 	0.8036	0.8241	0.5316	0.011
Mof_H 	H 	0.7795	0.8812	0.5495	0.034
Mof_H 	H 	0.8658	0.818	0.5482	0.012
Mof_C 	C 	0.8387	0.767	0.5311	-0.055
Mof_H 	H 	0.8597	0.8258	0.5472	0.021
Mof_C 	C 	0.8026	0.8254	0.453	0.009
Mof_H 	H 	0.7766	0.8825	0.4367	0.011
Mof_H 	H 	0.8647	0.8218	0.4354	0.033
Mof_C 	C 	0.736	0.8387	0.4514	-0.052
Mof_H 	H 	0.7844	0.8784	0.4351	0.021
Mof_O 	O 	0.63309	0.68466	0.68399	-0.46
Mof_O 	O 	0.62249	0.70994	0.79843	-0.463
Mof_C 	C 	0.59727	0.67448	0.74261	0.38
Mof_C 	C 	0.51896	0.61238	0.74605	-0.079
Mof_C 	C 	0.4818	0.5777	0.68554	-0.013
Mof_H 	H 	0.5015	0.5984	0.6414	0.048
Mof_C 	C 	0.48703	0.584	0.81045	-0.014
Mof_H 	H 	0.5098	0.61	0.8519	0.046
Mof_C 	C 	0.6964	0.6759	0.5316	0.011
Mof_H 	H 	0.7205	0.6188	0.5495	0.034
Mof_H 	H 	0.6342	0.682	0.5482	0.012
Mof_C 	C 	0.6613	0.733	0.5311	-0.055
Mof_H 	H 	0.6403	0.6742	0.5472	0.021
Mof_C 	C 	0.6974	0.6746	0.453	0.009
Mof_H 	H 	0.7234	0.6175	0.4367	0.011
Mof_H 	H 	0.6353	0.6782	0.4354	0.033
Mof_C 	C 	0.764	0.6613	0.4514	-0.052
Mof_H 	H 	0.7156	0.6216	0.4351	0.021
Mof_O 	O 	0.68466	0.86691	0.68399	-0.46
Mof_O 	O 	0.70994	0.87751	0.79843	-0.463
Mof_C 	C 	0.67448	0.90273	0.74261	0.38
Mof_C 	C 	0.61238	0.98104	0.74605	-0.079
Mof_C 	C 	0.5777	0.0182	0.68554	-0.012
Mof_H 	H 	0.5984	0.9985	0.6414	0.047
Mof_C 	C 	0.584	0.01297	0.81045	-0.013
Mof_H 	H 	0.61	0.9902	0.8519	0.046
Mof_C 	C 	0.6759	0.8036	0.5316	0.011
Mof_H 	H 	0.6188	0.7795	0.5495	0.034
Mof_H 	H 	0.682	0.8658	0.5482	0.012
Mof_C 	C 	0.733	0.8387	0.5311	-0.055
Mof_H 	H 	0.6742	0.8597	0.5472	0.021
Mof_C 	C 	0.6746	0.8026	0.453	0.009
Mof_H 	H 	0.6175	0.7766	0.4367	0.011
Mof_H 	H 	0.6782	0.8647	0.4354	0.033
Mof_C 	C 	0.6613	0.736	0.4514	-0.052
Mof_H 	H 	0.6216	0.7844	0.4351	0.021
Mof_O 	O 	0.81534	0.63309	0.68399	-0.46
Mof_O 	O 	0.79006	0.62249	0.79843	-0.463
Mof_C 	C 	0.82552	0.59727	0.74261	0.38
Mof_C 	C 	0.88762	0.51896	0.74605	-0.079
Mof_C 	C 	0.9223	0.4818	0.68554	-0.013
Mof_H 	H 	0.9016	0.5015	0.6414	0.048
Mof_C 	C 	0.916	0.48703	0.81045	-0.014
Mof_H 	H 	0.89	0.5098	0.8519	0.046
Mof_C 	C 	0.8241	0.6964	0.5316	0.011
Mof_H 	H 	0.8812	0.7205	0.5495	0.034
Mof_H 	H 	0.818	0.6342	0.5482	0.012
Mof_C 	C 	0.767	0.6613	0.5311	-0.055
Mof_H 	H 	0.8258	0.6403	0.5472	0.021
Mof_C 	C 	0.8254	0.6974	0.453	0.009
Mof_H 	H 	0.8825	0.7234	0.4367	0.011
Mof_H 	H 	0.8218	0.6353	0.4354	0.033
Mof_C 	C 	0.8387	0.764	0.4514	-0.052
Mof_H 	H 	0.8784	0.7156	0.4351	0.021
Mof_O 	O 	0.13309	0.31534	0.81601	-0.46
Mof_O 	O 	0.12249	0.29006	0.70157	-0.463
Mof_C 	C 	0.09727	0.32552	0.75739	0.38
Mof_C 	C 	0.01896	0.38762	0.75395	-0.079
Mof_C 	C 	0.9818	0.4223	0.81446	-0.012
Mof_H 	H 	0.0015	0.4016	0.8586	0.047
Mof_C 	C 	0.98703	0.416	0.68955	-0.013
Mof_H 	H 	0.0098	0.39	0.6481	0.046
Mof_C 	C 	0.1964	0.3241	0.9684	0.011
Mof_H 	H 	0.2205	0.3812	0.9505	0.034
Mof_H 	H 	0.1342	0.318	0.9518	0.012
Mof_C 	C 	0.1613	0.267	0.9689	-0.055
Mof_H 	H 	0.1403	0.3258	0.9528	0.021
Mof_C 	C 	0.1974	0.3254	0.047	0.009
Mof_H 	H 	0.2234	0.3825	0.0633	0.011
Mof_H 	H 	0.1353	0.3218	0.0646	0.033
Mof_C 	C 	0.264	0.3387	0.0486	-0.052
Mof_H 	H 	0.2156	0.3784	0.0649	0.021
Mof_O 	O 	0.36691	0.18466	0.81601	-0.46
Mof_O 	O 	0.37751	0.20994	0.70157	-0.463
Mof_C 	C 	0.40273	0.17448	0.75739	0.38
Mof_C 	C 	0.48104	0.11238	0.75395	-0.079
Mof_C 	C 	0.5182	0.0777	0.81446	-0.013
Mof_H 	H 	0.4985	0.0984	0.8586	0.048
Mof_C 	C 	0.51297	0.084	0.68955	-0.014
Mof_H 	H 	0.4902	0.11	0.6481	0.047
Mof_C 	C 	0.3036	0.1759	0.9684	0.011
Mof_H 	H 	0.2795	0.1188	0.9505	0.034
Mof_H 	H 	0.3658	0.182	0.9518	0.012
Mof_C 	C 	0.3387	0.233	0.9689	-0.055
Mof_H 	H 	0.3597	0.1742	0.9528	0.021
Mof_C 	C 	0.3026	0.1746	0.047	0.009
Mof_H 	H 	0.2766	0.1175	0.0633	0.011
Mof_H 	H 	0.3647	0.1782	0.0646	0.033
Mof_C 	C 	0.236	0.1613	0.0486	-0.052
Mof_H 	H 	0.2844	0.1216	0.0649	0.021
Mof_O 	O 	0.31534	0.36691	0.81601	-0.46
Mof_O 	O 	0.29006	0.37751	0.70157	-0.463
Mof_C 	C 	0.32552	0.40273	0.75739	0.38
Mof_C 	C 	0.38762	0.48104	0.75395	-0.079
Mof_C 	C 	0.4223	0.5182	0.81446	-0.013
Mof_H 	H 	0.4016	0.4985	0.8586	0.048
Mof_C 	C 	0.416	0.51297	0.68955	-0.014
Mof_H 	H 	0.39	0.4902	0.6481	0.046
Mof_C 	C 	0.3241	0.3036	0.9684	0.011
Mof_H 	H 	0.3812	0.2795	0.9505	0.034
Mof_H 	H 	0.318	0.3658	0.9518	0.012
Mof_C 	C 	0.267	0.3387	0.9689	-0.055
Mof_H 	H 	0.3258	0.3597	0.9528	0.021
Mof_C 	C 	0.3254	0.3026	0.047	0.009
Mof_H 	H 	0.3825	0.2766	0.0633	0.011
Mof_H 	H 	0.3218	0.3647	0.0646	0.033
Mof_C 	C 	0.3387	0.236	0.0486	-0.052
Mof_H 	H 	0.3784	0.2844	0.0649	0.021
Mof_O 	O 	0.18466	0.13309	0.81601	-0.46
Mof_O 	O 	0.20994	0.12249	0.70157	-0.463
Mof_C 	C 	0.17448	0.09727	0.75739	0.38
Mof_C 	C 	0.11238	0.01896	0.75395	-0.08
Mof_C 	C 	0.0777	0.9818	0.81446	-0.012
Mof_H 	H 	0.0984	0.0015	0.8586	0.047
Mof_C 	C 	0.084	0.98703	0.68955	-0.013
Mof_H 	H 	0.11	0.0098	0.6481	0.046
Mof_C 	C 	0.1759	0.1964	0.9684	0.011
Mof_H 	H 	0.1188	0.2205	0.9505	0.034
Mof_H 	H 	0.182	0.1342	0.9518	0.012
Mof_C 	C 	0.233	0.1613	0.9689	-0.055
Mof_H 	H 	0.1742	0.1403	0.9528	0.021
Mof_C 	C 	0.1746	0.1974	0.047	0.009
Mof_H 	H 	0.1175	0.2234	0.0633	0.011
Mof_H 	H 	0.1782	0.1353	0.0646	0.033
Mof_C 	C 	0.1613	0.264	0.0486	-0.052
Mof_H 	H 	0.1216	0.2156	0.0649	0.021
Mof_Zn	Zn	0.25	0.25	0.33481	1.213
Mof_Zn	Zn	0.25	0.25	0.18158	1.212
Mof_N 	N 	0.25	0.25	0.4415	-0.194
Mof_N 	N 	0.25	0.25	0.5752	-0.195
Mof_Zn	Zn	0.75	0.75	0.16519	1.213
Mof_Zn	Zn	0.75	0.75	0.31842	1.212
Mof_N 	N 	0.75	0.75	0.0585	-0.194
Mof_N 	N 	0.75	0.75	0.9248	-0.195
Mof_Zn	Zn	0.75	0.75	0.66519	1.213
Mof_Zn	Zn	0.75	0.75	0.81842	1.212
Mof_N 	N 	0.75	0.75	0.5585	-0.194
Mof_N 	N 	0.75	0.75	0.4248	-0.195
Mof_Zn	Zn	0.25	0.25	0.83481	1.213
Mof_Zn	Zn	0.25	0.25	0.68158	1.212
Mof_N 	N 	0.25	0.25	0.9415	-0.194
Mof_N 	N 	0.25	0.25	0.0752	-0.195
_end
