data_functionalizedCrystal
_audit_creation_method	'EQeq! by Chris Wilmer'
_symmetry_space_group_name_H-M	'P1'
_symmetry_Int_Tables_number	1
_symmetry_cell_setting	triclinic
loop_
_symmetry_equiv_pos_as_xyz
  x,y,z
_cell_length_a	13.9917
_cell_length_b	13.9917
_cell_length_c	13.9917
_cell_angle_alpha	104.803
_cell_angle_beta	104.803
_cell_angle_gamma	104.803
loop_
_atom_site_label
_atom_site_type_symbol
_atom_site_fract_x
_atom_site_fract_y
_atom_site_fract_z
_atom_site_charge
Mof_Ag	Ag	0.78492	0.78492	0.51416	0.651
Mof_Ag	Ag	0.51416	0.78492	0.78492	0.651
Mof_Ag	Ag	0.78492	0.51416	0.78492	0.651
Mof_Ag	Ag	0.21508	0.21508	0.48584	0.611
Mof_Ag	Ag	0.21508	0.48584	0.21508	0.611
Mof_Ag	Ag	0.48584	0.21508	0.21508	0.611
Mof_Ag	Ag	-3.54558e-17	0.27741	0.72259	0.64
Mof_Ag	Ag	0.72259	-1.18186e-17	0.27741	0.64
Mof_Ag	Ag	0.27741	0.72259	-0	0.64
Mof_Ag	Ag	2.95465e-17	0.72259	0.27741	0.64
Mof_Ag	Ag	0.27741	-4.72744e-17	0.72259	0.64
Mof_Ag	Ag	0.72259	0.27741	-0	0.64
Mof_H 	H 	0.5251	0.6463	0.2883	0.225
Mof_H 	H 	0.821	0.0976	0.5818	0.155
Mof_H 	H 	0.7691	0.9763	0.524	0.169
Mof_H 	H 	0.8089	0.6032	0.5324	0.131
Mof_H 	H 	0.1742	0.2449	0.7593	0.117
Mof_H 	H 	0.2883	0.5251	0.6463	0.225
Mof_H 	H 	0.5818	0.821	0.0976	0.155
Mof_H 	H 	0.524	0.7691	0.9763	0.169
Mof_H 	H 	0.5324	0.8089	0.6032	0.131
Mof_H 	H 	0.7593	0.1742	0.2449	0.117
Mof_H 	H 	0.6463	0.2883	0.5251	0.225
Mof_H 	H 	0.0976	0.5818	0.821	0.155
Mof_H 	H 	0.9763	0.524	0.7691	0.169
Mof_H 	H 	0.6032	0.5324	0.8089	0.131
Mof_H 	H 	0.2449	0.7593	0.1742	0.117
Mof_H 	H 	0.3537	0.4749	0.7117	0.229
Mof_H 	H 	0.9024	0.179	0.4182	0.14
Mof_H 	H 	0.0237	0.2309	0.476	0.098
Mof_H 	H 	0.3968	0.1911	0.4676	0.125
Mof_H 	H 	0.7551	0.8258	0.2407	0.119
Mof_H 	H 	0.4749	0.7117	0.3537	0.229
Mof_H 	H 	0.179	0.4182	0.9024	0.14
Mof_H 	H 	0.2309	0.476	0.0237	0.098
Mof_H 	H 	0.1911	0.4676	0.3968	0.125
Mof_H 	H 	0.8258	0.2407	0.7551	0.119
Mof_H 	H 	0.7117	0.3537	0.4749	0.229
Mof_H 	H 	0.4182	0.9024	0.179	0.14
Mof_H 	H 	0.476	0.0237	0.2309	0.098
Mof_H 	H 	0.4676	0.3968	0.1911	0.125
Mof_H 	H 	0.2407	0.7551	0.8258	0.119
Mof_H 	H 	0.4749	0.3537	0.7117	0.229
Mof_H 	H 	0.179	0.9024	0.4182	0.14
Mof_H 	H 	0.2309	0.0237	0.476	0.098
Mof_H 	H 	0.1911	0.3968	0.4676	0.125
Mof_H 	H 	0.8258	0.7551	0.2407	0.119
Mof_H 	H 	0.7117	0.4749	0.3537	0.229
Mof_H 	H 	0.4182	0.179	0.9024	0.14
Mof_H 	H 	0.476	0.2309	0.0237	0.098
Mof_H 	H 	0.4676	0.1911	0.3968	0.125
Mof_H 	H 	0.2407	0.8258	0.7551	0.119
Mof_H 	H 	0.3537	0.7117	0.4749	0.229
Mof_H 	H 	0.9024	0.4182	0.179	0.14
Mof_H 	H 	0.0237	0.476	0.2309	0.098
Mof_H 	H 	0.3968	0.4676	0.1911	0.125
Mof_H 	H 	0.7551	0.2407	0.8258	0.119
Mof_H 	H 	0.6463	0.5251	0.2883	0.225
Mof_H 	H 	0.0976	0.821	0.5818	0.155
Mof_H 	H 	0.9763	0.7691	0.524	0.169
Mof_H 	H 	0.6032	0.8089	0.5324	0.131
Mof_H 	H 	0.2449	0.1742	0.7593	0.117
Mof_H 	H 	0.5251	0.2883	0.6463	0.225
Mof_H 	H 	0.821	0.5818	0.0976	0.155
Mof_H 	H 	0.7691	0.524	0.9763	0.169
Mof_H 	H 	0.8089	0.5324	0.6032	0.131
Mof_H 	H 	0.1742	0.7593	0.2449	0.117
Mof_H 	H 	0.2883	0.6463	0.5251	0.225
Mof_H 	H 	0.5818	0.0976	0.821	0.155
Mof_H 	H 	0.524	0.9763	0.7691	0.169
Mof_H 	H 	0.5324	0.6032	0.8089	0.131
Mof_H 	H 	0.7593	0.2449	0.1742	0.117
Mof_C 	C 	0.92	0.0229	0.59593	0.209
Mof_C 	C 	0.59233	0.80276	0.32351	0.552
Mof_C 	C 	0.59593	0.92	0.0229	0.209
Mof_C 	C 	0.32351	0.59233	0.80276	0.552
Mof_C 	C 	0.0229	0.59593	0.92	0.209
Mof_C 	C 	0.80276	0.32351	0.59233	0.552
Mof_C 	C 	0.9771	0.08	0.40407	0.201
Mof_C 	C 	0.19724	0.40767	0.67649	0.55
Mof_C 	C 	0.08	0.40407	0.9771	0.201
Mof_C 	C 	0.40767	0.67649	0.19724	0.55
Mof_C 	C 	0.40407	0.9771	0.08	0.201
Mof_C 	C 	0.67649	0.19724	0.40767	0.55
Mof_C 	C 	0.08	0.9771	0.40407	0.201
Mof_C 	C 	0.40767	0.19724	0.67649	0.55
Mof_C 	C 	0.40407	0.08	0.9771	0.201
Mof_C 	C 	0.67649	0.40767	0.19724	0.55
Mof_C 	C 	0.9771	0.40407	0.08	0.201
Mof_C 	C 	0.19724	0.67649	0.40767	0.55
Mof_C 	C 	0.0229	0.92	0.59593	0.209
Mof_C 	C 	0.80276	0.59233	0.32351	0.552
Mof_C 	C 	0.92	0.59593	0.0229	0.209
Mof_C 	C 	0.59233	0.32351	0.80276	0.552
Mof_C 	C 	0.59593	0.0229	0.92	0.209
Mof_C 	C 	0.32351	0.80276	0.59233	0.552
Mof_C 	C 	0.09642	0.09642	0.68197	0.18
Mof_C 	C 	0.68197	0.09642	0.09642	0.18
Mof_C 	C 	0.09642	0.68197	0.09642	0.18
Mof_C 	C 	0.90358	0.90358	0.31803	0.205
Mof_C 	C 	0.90358	0.31803	0.90358	0.205
Mof_C 	C 	0.31803	0.90358	0.90358	0.205
Mof_C 	C 	0.5	0.70475	0.29525	-0.712
Mof_C 	C 	0.29525	0.5	0.70475	-0.712
Mof_C 	C 	0.70475	0.29525	0.5	-0.712
Mof_C 	C 	0.5	0.29525	0.70475	-0.712
Mof_C 	C 	0.70475	0.5	0.29525	-0.712
Mof_C 	C 	0.29525	0.70475	0.5	-0.712
Mof_C 	C 	0.7177	0.6143	0.6143	0.191
Mof_C 	C 	0.6143	0.7177	0.6143	0.191
Mof_C 	C 	0.6143	0.6143	0.7177	0.191
Mof_C 	C 	0.3857	0.2823	0.3857	0.181
Mof_C 	C 	0.2823	0.3857	0.3857	0.181
Mof_C 	C 	0.3857	0.3857	0.2823	0.181
Mof_N 	N 	0.82669	0.03337	0.56372	-0.355
Mof_N 	N 	0.00333	0.11062	0.6551	-0.268
Mof_N 	N 	0.56372	0.82669	0.03337	-0.355
Mof_N 	N 	0.6551	0.00333	0.11062	-0.268
Mof_N 	N 	0.03337	0.56372	0.82669	-0.355
Mof_N 	N 	0.11062	0.6551	0.00333	-0.268
Mof_N 	N 	0.96663	0.17331	0.43628	-0.281
Mof_N 	N 	0.88938	0.99667	0.3449	-0.217
Mof_N 	N 	0.17331	0.43628	0.96663	-0.281
Mof_N 	N 	0.99667	0.3449	0.88938	-0.217
Mof_N 	N 	0.43628	0.96663	0.17331	-0.281
Mof_N 	N 	0.3449	0.88938	0.99667	-0.217
Mof_N 	N 	0.17331	0.96663	0.43628	-0.281
Mof_N 	N 	0.99667	0.88938	0.3449	-0.217
Mof_N 	N 	0.43628	0.17331	0.96663	-0.281
Mof_N 	N 	0.3449	0.99667	0.88938	-0.217
Mof_N 	N 	0.96663	0.43628	0.17331	-0.281
Mof_N 	N 	0.88938	0.3449	0.99667	-0.217
Mof_N 	N 	0.03337	0.82669	0.56372	-0.355
Mof_N 	N 	0.11062	0.00333	0.6551	-0.268
Mof_N 	N 	0.82669	0.56372	0.03337	-0.355
Mof_N 	N 	0.00333	0.6551	0.11062	-0.268
Mof_N 	N 	0.56372	0.03337	0.82669	-0.355
Mof_N 	N 	0.6551	0.11062	0.00333	-0.268
Mof_N 	N 	0.92562	0.92562	0.56697	-0.224
Mof_N 	N 	0.68435	0.68435	0.577	-0.252
Mof_N 	N 	0.18087	0.18087	0.73987	-0.305
Mof_N 	N 	0.56697	0.92562	0.92562	-0.224
Mof_N 	N 	0.577	0.68435	0.68435	-0.252
Mof_N 	N 	0.73987	0.18087	0.18087	-0.305
Mof_N 	N 	0.92562	0.56697	0.92562	-0.224
Mof_N 	N 	0.68435	0.577	0.68435	-0.252
Mof_N 	N 	0.18087	0.73987	0.18087	-0.305
Mof_N 	N 	0.07438	0.07438	0.43303	-0.286
Mof_N 	N 	0.31565	0.31565	0.423	-0.251
Mof_N 	N 	0.81913	0.81913	0.26013	-0.308
Mof_N 	N 	0.07438	0.43303	0.07438	-0.286
Mof_N 	N 	0.31565	0.423	0.31565	-0.251
Mof_N 	N 	0.81913	0.26013	0.81913	-0.308
Mof_N 	N 	0.43303	0.07438	0.07438	-0.286
Mof_N 	N 	0.423	0.31565	0.31565	-0.251
Mof_N 	N 	0.26013	0.81913	0.81913	-0.308
Mof_N 	N 	0.7857	0.57985	0.57985	-0.315
Mof_N 	N 	0.57985	0.7857	0.57985	-0.315
Mof_N 	N 	0.57985	0.57985	0.7857	-0.315
Mof_N 	N 	0.42015	0.2143	0.42015	-0.314
Mof_N 	N 	0.2143	0.42015	0.42015	-0.314
Mof_N 	N 	0.42015	0.42015	0.2143	-0.314
Mof_O 	O 	0.64533	0.84795	0.41846	-0.429
Mof_O 	O 	0.61162	0.82964	0.25094	-0.418
Mof_O 	O 	0.41846	0.64533	0.84795	-0.429
Mof_O 	O 	0.25094	0.61162	0.82964	-0.418
Mof_O 	O 	0.84795	0.41846	0.64533	-0.429
Mof_O 	O 	0.82964	0.25094	0.61162	-0.418
Mof_O 	O 	0.15205	0.35467	0.58154	-0.437
Mof_O 	O 	0.17036	0.38838	0.74906	-0.425
Mof_O 	O 	0.35467	0.58154	0.15205	-0.437
Mof_O 	O 	0.38838	0.74906	0.17036	-0.425
Mof_O 	O 	0.58154	0.15205	0.35467	-0.437
Mof_O 	O 	0.74906	0.17036	0.38838	-0.425
Mof_O 	O 	0.35467	0.15205	0.58154	-0.437
Mof_O 	O 	0.38838	0.17036	0.74906	-0.425
Mof_O 	O 	0.58154	0.35467	0.15205	-0.437
Mof_O 	O 	0.74906	0.38838	0.17036	-0.425
Mof_O 	O 	0.15205	0.58154	0.35467	-0.437
Mof_O 	O 	0.17036	0.74906	0.38838	-0.425
Mof_O 	O 	0.84795	0.64533	0.41846	-0.429
Mof_O 	O 	0.82964	0.61162	0.25094	-0.418
Mof_O 	O 	0.64533	0.41846	0.84795	-0.429
Mof_O 	O 	0.61162	0.25094	0.82964	-0.418
Mof_O 	O 	0.41846	0.84795	0.64533	-0.429
Mof_O 	O 	0.25094	0.82964	0.61162	-0.418
_end
