data_functionalizedCrystal
_audit_creation_method	'EQeq! by Chris Wilmer'
_symmetry_space_group_name_H-M	'P1'
_symmetry_Int_Tables_number	1
_symmetry_cell_setting	triclinic
loop_
_symmetry_equiv_pos_as_xyz
  x,y,z
_cell_length_a	18.034
_cell_length_b	18.034
_cell_length_c	8.791
_cell_angle_alpha	90
_cell_angle_beta	90
_cell_angle_gamma	120
loop_
_atom_site_label
_atom_site_type_symbol
_atom_site_fract_x
_atom_site_fract_y
_atom_site_fract_z
_atom_site_charge
Mof_C 	C 	0.242	0.988	0.7	1.292
Mof_C 	C 	0.338	0.034	0.68	0.251
Mof_C 	C 	0.255	0.969	0.709	-1.308
Mof_C 	C 	0.012	0.254	0.7	1.022
Mof_C 	C 	0.966	0.304	0.68	0.228
Mof_C 	C 	0.031	0.286	0.709	-1.051
Mof_C 	C 	0.746	0.758	0.7	1.257
Mof_C 	C 	0.696	0.662	0.68	0.248
Mof_C 	C 	0.714	0.745	0.709	-1.281
Mof_C 	C 	0.758	0.012	0.2	1.291
Mof_C 	C 	0.662	0.966	0.18	0.25
Mof_C 	C 	0.745	0.031	0.209	-1.309
Mof_C 	C 	0.988	0.746	0.2	1.021
Mof_C 	C 	0.034	0.696	0.18	0.226
Mof_C 	C 	0.969	0.714	0.209	-1.052
Mof_C 	C 	0.254	0.242	0.2	1.256
Mof_C 	C 	0.304	0.338	0.18	0.246
Mof_C 	C 	0.286	0.255	0.209	-1.281
Mof_C 	C 	0.988	0.242	0.3	1.291
Mof_C 	C 	0.034	0.338	0.32	0.25
Mof_C 	C 	0.969	0.255	0.291	-1.309
Mof_C 	C 	0.254	0.012	0.3	1.021
Mof_C 	C 	0.304	0.966	0.32	0.227
Mof_C 	C 	0.286	0.031	0.291	-1.052
Mof_C 	C 	0.758	0.746	0.3	1.256
Mof_C 	C 	0.662	0.696	0.32	0.247
Mof_C 	C 	0.745	0.714	0.291	-1.281
Mof_C 	C 	0.012	0.758	0.8	1.291
Mof_C 	C 	0.966	0.662	0.82	0.25
Mof_C 	C 	0.031	0.745	0.791	-1.309
Mof_C 	C 	0.746	0.988	0.8	1.021
Mof_C 	C 	0.696	0.034	0.82	0.226
Mof_C 	C 	0.714	0.969	0.791	-1.052
Mof_C 	C 	0.242	0.254	0.8	1.256
Mof_C 	C 	0.338	0.304	0.82	0.246
Mof_C 	C 	0.255	0.286	0.791	-1.281
Mof_C 	C 	0.758	0.012	0.3	1.291
Mof_C 	C 	0.662	0.966	0.32	0.25
Mof_C 	C 	0.745	0.031	0.291	-1.309
Mof_C 	C 	0.988	0.746	0.3	1.021
Mof_C 	C 	0.034	0.696	0.32	0.227
Mof_C 	C 	0.969	0.714	0.291	-1.052
Mof_C 	C 	0.254	0.242	0.3	1.256
Mof_C 	C 	0.304	0.338	0.32	0.247
Mof_C 	C 	0.286	0.255	0.291	-1.281
Mof_C 	C 	0.242	0.988	0.8	1.291
Mof_C 	C 	0.338	0.034	0.82	0.25
Mof_C 	C 	0.255	0.969	0.791	-1.309
Mof_C 	C 	0.012	0.254	0.8	1.021
Mof_C 	C 	0.966	0.304	0.82	0.226
Mof_C 	C 	0.031	0.286	0.791	-1.052
Mof_C 	C 	0.746	0.758	0.8	1.256
Mof_C 	C 	0.696	0.662	0.82	0.246
Mof_C 	C 	0.714	0.745	0.791	-1.281
Mof_C 	C 	0.012	0.758	0.7	1.291
Mof_C 	C 	0.966	0.662	0.68	0.25
Mof_C 	C 	0.031	0.745	0.709	-1.309
Mof_C 	C 	0.746	0.988	0.7	1.021
Mof_C 	C 	0.696	0.034	0.68	0.227
Mof_C 	C 	0.714	0.969	0.709	-1.052
Mof_C 	C 	0.242	0.254	0.7	1.256
Mof_C 	C 	0.338	0.304	0.68	0.247
Mof_C 	C 	0.255	0.286	0.709	-1.281
Mof_C 	C 	0.988	0.242	0.2	1.291
Mof_C 	C 	0.034	0.338	0.18	0.25
Mof_C 	C 	0.969	0.255	0.209	-1.309
Mof_C 	C 	0.254	0.012	0.2	1.021
Mof_C 	C 	0.304	0.966	0.18	0.226
Mof_C 	C 	0.286	0.031	0.209	-1.052
Mof_C 	C 	0.758	0.746	0.2	1.256
Mof_C 	C 	0.662	0.696	0.18	0.246
Mof_C 	C 	0.745	0.714	0.209	-1.281
Mof_Cu	Cu	0.5361	0.0722	0.75	0.833
Mof_Cu	Cu	0.9278	0.4639	0.75	0.833
Mof_Cu	Cu	0.5361	0.4639	0.75	0.832
Mof_Cu	Cu	0.4639	0.9278	0.25	0.833
Mof_Cu	Cu	0.0722	0.5361	0.25	0.833
Mof_Cu	Cu	0.4639	0.5361	0.25	0.832
Mof_C 	C 	0.5086	0.0172	0.5585	-0.217
Mof_C 	C 	0.9828	0.4914	0.5585	-0.217
Mof_C 	C 	0.5086	0.4914	0.5585	-0.218
Mof_C 	C 	0.4914	0.9828	0.0585	-0.218
Mof_C 	C 	0.0172	0.5086	0.0585	-0.218
Mof_C 	C 	0.4914	0.5086	0.0585	-0.218
Mof_C 	C 	0.0172	0.5086	0.4415	-0.217
Mof_C 	C 	0.4914	0.9828	0.4415	-0.217
Mof_C 	C 	0.4914	0.5086	0.4415	-0.218
Mof_C 	C 	0.9828	0.4914	0.9415	-0.218
Mof_C 	C 	0.5086	0.0172	0.9415	-0.218
Mof_C 	C 	0.5086	0.4914	0.9415	-0.218
Mof_N 	N 	0.5138	0.1789	0.75	-0.232
Mof_C 	C 	0.5882	0.2557	0.75	0.011
Mof_C 	C 	0.4429	0.1824	0.75	0.122
Mof_O 	O 	0.3616	0.1232	0.75	-0.132
Mof_C 	C 	0.369	0.0955	0.75	-0.331
Mof_N 	N 	0.311	0.0294	0.75	-0.58
Mof_C 	C 	0.353	0.0326	0.75	0.493
Mof_N 	N 	0.8211	0.3349	0.75	-0.227
Mof_C 	C 	0.7443	0.3325	0.75	0.012
Mof_C 	C 	0.8176	0.2605	0.75	0.117
Mof_O 	O 	0.8768	0.2384	0.75	-0.047
Mof_C 	C 	0.9045	0.2735	0.75	-0.399
Mof_N 	N 	0.9706	0.2816	0.75	-0.533
Mof_C 	C 	0.9674	0.3204	0.75	0.472
Mof_N 	N 	0.6651	0.4862	0.75	-0.231
Mof_C 	C 	0.6675	0.4118	0.75	0.011
Mof_C 	C 	0.7395	0.5571	0.75	0.122
Mof_O 	O 	0.7616	0.6384	0.75	-0.12
Mof_C 	C 	0.7265	0.631	0.75	-0.341
Mof_N 	N 	0.7184	0.689	0.75	-0.57
Mof_C 	C 	0.6796	0.647	0.75	0.487
Mof_N 	N 	0.4862	0.8211	0.25	-0.232
Mof_C 	C 	0.4118	0.7443	0.25	0.011
Mof_C 	C 	0.5571	0.8176	0.25	0.122
Mof_O 	O 	0.6384	0.8768	0.25	-0.132
Mof_C 	C 	0.631	0.9045	0.25	-0.331
Mof_N 	N 	0.689	0.9706	0.25	-0.58
Mof_C 	C 	0.647	0.9674	0.25	0.493
Mof_N 	N 	0.1789	0.6651	0.25	-0.227
Mof_C 	C 	0.2557	0.6675	0.25	0.012
Mof_C 	C 	0.1824	0.7395	0.25	0.117
Mof_O 	O 	0.1232	0.7616	0.25	-0.047
Mof_C 	C 	0.0955	0.7265	0.25	-0.399
Mof_N 	N 	0.0294	0.7184	0.25	-0.533
Mof_C 	C 	0.0326	0.6796	0.25	0.472
Mof_N 	N 	0.3349	0.5138	0.25	-0.231
Mof_C 	C 	0.3325	0.5882	0.25	0.011
Mof_C 	C 	0.2605	0.4429	0.25	0.122
Mof_O 	O 	0.2384	0.3616	0.25	-0.12
Mof_C 	C 	0.2735	0.369	0.25	-0.341
Mof_N 	N 	0.2816	0.311	0.25	-0.57
Mof_C 	C 	0.3204	0.353	0.25	0.487
Mof_N 	N 	0.1789	0.5138	0.25	-0.232
Mof_C 	C 	0.2557	0.5882	0.25	0.011
Mof_C 	C 	0.1824	0.4429	0.25	0.122
Mof_O 	O 	0.1232	0.3616	0.25	-0.132
Mof_C 	C 	0.0955	0.369	0.25	-0.331
Mof_N 	N 	0.0294	0.311	0.25	-0.58
Mof_C 	C 	0.0326	0.353	0.25	0.493
Mof_N 	N 	0.3349	0.8211	0.25	-0.227
Mof_C 	C 	0.3325	0.7443	0.25	0.012
Mof_C 	C 	0.2605	0.8176	0.25	0.117
Mof_O 	O 	0.2384	0.8768	0.25	-0.047
Mof_C 	C 	0.2735	0.9045	0.25	-0.399
Mof_N 	N 	0.2816	0.9706	0.25	-0.533
Mof_C 	C 	0.3204	0.9674	0.25	0.472
Mof_N 	N 	0.4862	0.6651	0.25	-0.231
Mof_C 	C 	0.4118	0.6675	0.25	0.011
Mof_C 	C 	0.5571	0.7395	0.25	0.122
Mof_O 	O 	0.6384	0.7616	0.25	-0.12
Mof_C 	C 	0.631	0.7265	0.25	-0.341
Mof_N 	N 	0.689	0.7184	0.25	-0.57
Mof_C 	C 	0.647	0.6796	0.25	0.487
Mof_N 	N 	0.8211	0.4862	0.75	-0.232
Mof_C 	C 	0.7443	0.4118	0.75	0.011
Mof_C 	C 	0.8176	0.5571	0.75	0.122
Mof_O 	O 	0.8768	0.6384	0.75	-0.132
Mof_C 	C 	0.9045	0.631	0.75	-0.331
Mof_N 	N 	0.9706	0.689	0.75	-0.58
Mof_C 	C 	0.9674	0.647	0.75	0.493
Mof_N 	N 	0.6651	0.1789	0.75	-0.227
Mof_C 	C 	0.6675	0.2557	0.75	0.012
Mof_C 	C 	0.7395	0.1824	0.75	0.117
Mof_O 	O 	0.7616	0.1232	0.75	-0.047
Mof_C 	C 	0.7265	0.0955	0.75	-0.399
Mof_N 	N 	0.7184	0.0294	0.75	-0.533
Mof_C 	C 	0.6796	0.0326	0.75	0.472
Mof_N 	N 	0.5138	0.3349	0.75	-0.231
Mof_C 	C 	0.5882	0.3325	0.75	0.011
Mof_C 	C 	0.4429	0.2605	0.75	0.122
Mof_O 	O 	0.3616	0.2384	0.75	-0.12
Mof_C 	C 	0.369	0.2735	0.75	-0.341
Mof_N 	N 	0.311	0.2816	0.75	-0.57
Mof_C 	C 	0.353	0.3204	0.75	0.487
_end
