data_functionalizedCrystal
_audit_creation_method	'EQeq! by Chris Wilmer'
_symmetry_space_group_name_H-M	'P1'
_symmetry_Int_Tables_number	1
_symmetry_cell_setting	triclinic
loop_
_symmetry_equiv_pos_as_xyz
  x,y,z
_cell_length_a	38.659
_cell_length_b	38.659
_cell_length_c	8.5638
_cell_angle_alpha	90
_cell_angle_beta	90
_cell_angle_gamma	120
loop_
_atom_site_label
_atom_site_type_symbol
_atom_site_fract_x
_atom_site_fract_y
_atom_site_fract_z
_atom_site_charge
Mof_N 	N 	0.2837	0.9671	0.719	-0.053
Mof_C 	C 	0.2505	0.9322	0.761	0.066
Mof_C 	C 	0.2149	0.9069	0.694	0.333
Mof_H 	H 	0.2082	0.9127	0.5941	0.645
Mof_C 	C 	0.1889	0.8731	0.7715	0.128
Mof_N 	N 	0.2839	0.9642	0.719	-0.077
Mof_C 	C 	0.2546	0.9263	0.763	-0.019
Mof_C 	C 	0.2201	0.9005	0.677	-0.375
Mof_H 	H 	0.214	0.9076	0.5789	-0.595
Mof_C 	C 	0.1961	0.8646	0.747	-0.029
Mof_N 	N 	0.95037	0.30043	0.05233	-0.05
Mof_C 	C 	0.91717	0.26553	0.09433	0.068
Mof_C 	C 	0.88157	0.24023	0.02733	0.366
Mof_H 	H 	0.87487	0.24603	0.92743	0.664
Mof_C 	C 	0.85557	0.20643	0.10483	0.159
Mof_N 	N 	0.95057	0.29753	0.05233	-0.073
Mof_C 	C 	0.92127	0.25963	0.09633	-0.02
Mof_C 	C 	0.88677	0.23383	0.01033	-0.381
Mof_H 	H 	0.88067	0.24093	0.91223	-0.633
Mof_C 	C 	0.86277	0.19793	0.08033	-0.054
Mof_N 	N 	0.61703	0.63377	0.38567	-0.052
Mof_C 	C 	0.58383	0.59887	0.42767	0.073
Mof_C 	C 	0.54823	0.57357	0.36067	0.367
Mof_H 	H 	0.54153	0.57937	0.26077	0.694
Mof_C 	C 	0.52223	0.53977	0.43817	0.143
Mof_N 	N 	0.61723	0.63087	0.38567	-0.078
Mof_C 	C 	0.58793	0.59297	0.42967	-0.027
Mof_C 	C 	0.55343	0.56717	0.34367	-0.405
Mof_H 	H 	0.54733	0.57427	0.24557	-0.646
Mof_C 	C 	0.52943	0.53127	0.41367	-0.044
Mof_N 	N 	0.0329	0.3166	0.719	-0.053
Mof_C 	C 	0.0678	0.3183	0.761	0.066
Mof_C 	C 	0.0931	0.308	0.694	0.333
Mof_H 	H 	0.0873	0.2955	0.5941	0.647
Mof_C 	C 	0.1269	0.3158	0.7715	0.127
Mof_N 	N 	0.0358	0.3197	0.719	-0.077
Mof_C 	C 	0.0737	0.3283	0.763	-0.019
Mof_C 	C 	0.0995	0.3196	0.677	-0.376
Mof_H 	H 	0.0924	0.3064	0.5789	-0.597
Mof_C 	C 	0.1354	0.3315	0.747	-0.028
Mof_N 	N 	0.69957	0.64993	0.05233	-0.05
Mof_C 	C 	0.73447	0.65163	0.09433	0.068
Mof_C 	C 	0.75977	0.64133	0.02733	0.367
Mof_H 	H 	0.75397	0.62883	0.92743	0.666
Mof_C 	C 	0.79357	0.64913	0.10483	0.16
Mof_N 	N 	0.70247	0.65303	0.05233	-0.073
Mof_C 	C 	0.74037	0.66163	0.09633	-0.02
Mof_C 	C 	0.76617	0.65293	0.01033	-0.383
Mof_H 	H 	0.75907	0.63973	0.91223	-0.636
Mof_C 	C 	0.80207	0.66483	0.08033	-0.055
Mof_N 	N 	0.36623	0.98327	0.38567	-0.052
Mof_C 	C 	0.40113	0.98497	0.42767	0.074
Mof_C 	C 	0.42643	0.97467	0.36067	0.364
Mof_H 	H 	0.42063	0.96217	0.26077	0.69
Mof_C 	C 	0.46023	0.98247	0.43817	0.141
Mof_N 	N 	0.36913	0.98637	0.38567	-0.077
Mof_C 	C 	0.40703	0.99497	0.42967	-0.026
Mof_C 	C 	0.43283	0.98627	0.34367	-0.403
Mof_H 	H 	0.42573	0.97307	0.24557	-0.641
Mof_C 	C 	0.46873	0.99817	0.41367	-0.039
Mof_N 	N 	0.6834	0.7163	0.719	-0.053
Mof_C 	C 	0.6817	0.7495	0.761	0.066
Mof_C 	C 	0.692	0.7851	0.694	0.334
Mof_H 	H 	0.7045	0.7918	0.5941	0.647
Mof_C 	C 	0.6842	0.8111	0.7715	0.129
Mof_N 	N 	0.6803	0.7161	0.719	-0.077
Mof_C 	C 	0.6717	0.7454	0.763	-0.019
Mof_C 	C 	0.6804	0.7799	0.677	-0.377
Mof_H 	H 	0.6936	0.786	0.5789	-0.597
Mof_C 	C 	0.6685	0.8039	0.747	-0.03
Mof_N 	N 	0.35007	0.04963	0.05233	-0.05
Mof_C 	C 	0.34837	0.08283	0.09433	0.069
Mof_C 	C 	0.35867	0.11843	0.02733	0.37
Mof_H 	H 	0.37117	0.12513	0.92743	0.67
Mof_C 	C 	0.35087	0.14443	0.10483	0.162
Mof_N 	N 	0.34697	0.04943	0.05233	-0.073
Mof_C 	C 	0.33837	0.07873	0.09633	-0.021
Mof_C 	C 	0.34707	0.11323	0.01033	-0.386
Mof_H 	H 	0.36027	0.11933	0.91223	-0.641
Mof_C 	C 	0.33517	0.13723	0.08033	-0.057
Mof_N 	N 	0.01673	0.38297	0.38567	-0.052
Mof_C 	C 	0.01503	0.41617	0.42767	0.072
Mof_C 	C 	0.02533	0.45177	0.36067	0.374
Mof_H 	H 	0.03783	0.45847	0.26077	0.701
Mof_C 	C 	0.01753	0.47777	0.43817	0.146
Mof_N 	N 	0.01363	0.38277	0.38567	-0.078
Mof_C 	C 	0.00503	0.41207	0.42967	-0.029
Mof_C 	C 	0.01373	0.44657	0.34367	-0.41
Mof_H 	H 	0.02693	0.45267	0.24557	-0.654
Mof_C 	C 	0.00183	0.47057	0.41367	-0.049
Mof_N 	N 	0.9671	0.2837	0.281	-0.05
Mof_C 	C 	0.9322	0.2505	0.239	0.095
Mof_C 	C 	0.9069	0.2149	0.306	0.503
Mof_H 	H 	0.9127	0.2082	0.4059	0.878
Mof_C 	C 	0.8731	0.1889	0.2285	0.224
Mof_N 	N 	0.9642	0.2839	0.281	-0.078
Mof_C 	C 	0.9263	0.2546	0.237	-0.056
Mof_C 	C 	0.9005	0.2201	0.323	-0.524
Mof_H 	H 	0.9076	0.214	0.4211	-0.843
Mof_C 	C 	0.8646	0.1961	0.253	-0.129
Mof_N 	N 	0.63377	0.61703	0.61433	-0.052
Mof_C 	C 	0.59887	0.58383	0.57233	0.081
Mof_C 	C 	0.57357	0.54823	0.63933	0.426
Mof_H 	H 	0.57937	0.54153	0.73923	0.766
Mof_C 	C 	0.53977	0.52223	0.56183	0.193
Mof_N 	N 	0.63087	0.61723	0.61433	-0.077
Mof_C 	C 	0.59297	0.58793	0.57033	-0.041
Mof_C 	C 	0.56717	0.55343	0.65633	-0.457
Mof_H 	H 	0.57427	0.54733	0.75443	-0.728
Mof_C 	C 	0.53127	0.52943	0.58633	-0.098
Mof_N 	N 	0.30043	0.95037	0.94767	-0.054
Mof_C 	C 	0.26553	0.91717	0.90567	0.088
Mof_C 	C 	0.24023	0.88157	0.97267	0.448
Mof_H 	H 	0.24603	0.87487	0.07257	0.825
Mof_C 	C 	0.20643	0.85557	0.89517	0.184
Mof_N 	N 	0.29753	0.95057	0.94767	-0.082
Mof_C 	C 	0.25963	0.92127	0.90367	-0.049
Mof_C 	C 	0.23383	0.88677	0.98967	-0.494
Mof_H 	H 	0.24093	0.88067	0.08777	-0.772
Mof_C 	C 	0.19793	0.86277	0.91967	-0.093
Mof_N 	N 	0.3166	0.0329	0.281	-0.051
Mof_C 	C 	0.3183	0.0678	0.239	0.095
Mof_C 	C 	0.308	0.0931	0.306	0.504
Mof_H 	H 	0.2955	0.0873	0.4059	0.881
Mof_C 	C 	0.3158	0.1269	0.2285	0.224
Mof_N 	N 	0.3197	0.0358	0.281	-0.078
Mof_C 	C 	0.3283	0.0737	0.237	-0.057
Mof_C 	C 	0.3196	0.0995	0.323	-0.525
Mof_H 	H 	0.3064	0.0924	0.4211	-0.846
Mof_C 	C 	0.3315	0.1354	0.253	-0.128
Mof_N 	N 	0.98327	0.36623	0.61433	-0.051
Mof_C 	C 	0.98497	0.40113	0.57233	0.082
Mof_C 	C 	0.97467	0.42643	0.63933	0.422
Mof_H 	H 	0.96217	0.42063	0.73923	0.763
Mof_C 	C 	0.98247	0.46023	0.56183	0.191
Mof_N 	N 	0.98637	0.36913	0.61433	-0.077
Mof_C 	C 	0.99497	0.40703	0.57033	-0.04
Mof_C 	C 	0.98627	0.43283	0.65633	-0.455
Mof_H 	H 	0.97307	0.42573	0.75443	-0.724
Mof_C 	C 	0.99817	0.46873	0.58633	-0.094
Mof_N 	N 	0.64993	0.69957	0.94767	-0.054
Mof_C 	C 	0.65163	0.73447	0.90567	0.088
Mof_C 	C 	0.64133	0.75977	0.97267	0.449
Mof_H 	H 	0.62883	0.75397	0.07257	0.827
Mof_C 	C 	0.64913	0.79357	0.89517	0.184
Mof_N 	N 	0.65303	0.70247	0.94767	-0.082
Mof_C 	C 	0.66163	0.74037	0.90367	-0.049
Mof_C 	C 	0.65293	0.76617	0.98967	-0.495
Mof_H 	H 	0.63973	0.75907	0.08777	-0.773
Mof_C 	C 	0.66483	0.80207	0.91967	-0.094
Mof_N 	N 	0.7163	0.6834	0.281	-0.051
Mof_C 	C 	0.7495	0.6817	0.239	0.095
Mof_C 	C 	0.7851	0.692	0.306	0.504
Mof_H 	H 	0.7918	0.7045	0.4059	0.879
Mof_C 	C 	0.8111	0.6842	0.2285	0.225
Mof_N 	N 	0.7161	0.6803	0.281	-0.078
Mof_C 	C 	0.7454	0.6717	0.237	-0.057
Mof_C 	C 	0.7799	0.6804	0.323	-0.525
Mof_H 	H 	0.786	0.6936	0.4211	-0.845
Mof_C 	C 	0.8039	0.6685	0.253	-0.129
Mof_N 	N 	0.38297	0.01673	0.61433	-0.052
Mof_C 	C 	0.41617	0.01503	0.57233	0.08
Mof_C 	C 	0.45177	0.02533	0.63933	0.431
Mof_H 	H 	0.45847	0.03783	0.73923	0.772
Mof_C 	C 	0.47777	0.01753	0.56183	0.195
Mof_N 	N 	0.38277	0.01363	0.61433	-0.077
Mof_C 	C 	0.41207	0.00503	0.57033	-0.042
Mof_C 	C 	0.44657	0.01373	0.65633	-0.461
Mof_H 	H 	0.45267	0.02693	0.75443	-0.735
Mof_C 	C 	0.47057	0.00183	0.58633	-0.103
Mof_N 	N 	0.04963	0.35007	0.94767	-0.054
Mof_C 	C 	0.08283	0.34837	0.90567	0.089
Mof_C 	C 	0.11843	0.35867	0.97267	0.453
Mof_H 	H 	0.12513	0.37117	0.07257	0.832
Mof_C 	C 	0.14443	0.35087	0.89517	0.187
Mof_N 	N 	0.04943	0.34697	0.94767	-0.082
Mof_C 	C 	0.07873	0.33837	0.90367	-0.05
Mof_C 	C 	0.11323	0.34707	0.98967	-0.499
Mof_H 	H 	0.11933	0.36027	0.08777	-0.779
Mof_C 	C 	0.13723	0.33517	0.91967	-0.096
Mof_N 	N 	0.7163	0.0329	0.281	-0.051
Mof_C 	C 	0.7495	0.0678	0.239	0.095
Mof_C 	C 	0.7851	0.0931	0.306	0.505
Mof_H 	H 	0.7918	0.0873	0.4059	0.881
Mof_C 	C 	0.8111	0.1269	0.2285	0.224
Mof_N 	N 	0.7161	0.0358	0.281	-0.078
Mof_C 	C 	0.7454	0.0737	0.237	-0.057
Mof_C 	C 	0.7799	0.0995	0.323	-0.526
Mof_H 	H 	0.786	0.0924	0.4211	-0.847
Mof_C 	C 	0.8039	0.1354	0.253	-0.129
Mof_N 	N 	0.38297	0.36623	0.61433	-0.052
Mof_C 	C 	0.41617	0.40113	0.57233	0.081
Mof_C 	C 	0.45177	0.42643	0.63933	0.426
Mof_H 	H 	0.45847	0.42063	0.73923	0.767
Mof_C 	C 	0.47777	0.46023	0.56183	0.193
Mof_N 	N 	0.38277	0.36913	0.61433	-0.077
Mof_C 	C 	0.41207	0.40703	0.57033	-0.041
Mof_C 	C 	0.44657	0.43283	0.65633	-0.458
Mof_H 	H 	0.45267	0.42573	0.75443	-0.729
Mof_C 	C 	0.47057	0.46873	0.58633	-0.098
Mof_N 	N 	0.04963	0.69957	0.94767	-0.054
Mof_C 	C 	0.08283	0.73447	0.90567	0.088
Mof_C 	C 	0.11843	0.75977	0.97267	0.451
Mof_H 	H 	0.12513	0.75397	0.07257	0.829
Mof_C 	C 	0.14443	0.79357	0.89517	0.186
Mof_N 	N 	0.04943	0.70247	0.94767	-0.082
Mof_C 	C 	0.07873	0.74037	0.90367	-0.05
Mof_C 	C 	0.11323	0.76617	0.98967	-0.497
Mof_H 	H 	0.11933	0.75907	0.08777	-0.777
Mof_C 	C 	0.13723	0.80207	0.91967	-0.095
Mof_N 	N 	0.9671	0.6834	0.281	-0.05
Mof_C 	C 	0.9322	0.6817	0.239	0.095
Mof_C 	C 	0.9069	0.692	0.306	0.502
Mof_H 	H 	0.9127	0.7045	0.4059	0.877
Mof_C 	C 	0.8731	0.6842	0.2285	0.224
Mof_N 	N 	0.9642	0.6803	0.281	-0.078
Mof_C 	C 	0.9263	0.6717	0.237	-0.056
Mof_C 	C 	0.9005	0.6804	0.323	-0.523
Mof_H 	H 	0.9076	0.6936	0.4211	-0.842
Mof_C 	C 	0.8646	0.6685	0.253	-0.129
Mof_N 	N 	0.63377	0.01673	0.61433	-0.052
Mof_C 	C 	0.59887	0.01503	0.57233	0.08
Mof_C 	C 	0.57357	0.02533	0.63933	0.431
Mof_H 	H 	0.57937	0.03783	0.73923	0.772
Mof_C 	C 	0.53977	0.01753	0.56183	0.195
Mof_N 	N 	0.63087	0.01363	0.61433	-0.077
Mof_C 	C 	0.59297	0.00503	0.57033	-0.042
Mof_C 	C 	0.56717	0.01373	0.65633	-0.461
Mof_H 	H 	0.57427	0.02693	0.75443	-0.735
Mof_C 	C 	0.53127	0.00183	0.58633	-0.103
Mof_N 	N 	0.30043	0.35007	0.94767	-0.054
Mof_C 	C 	0.26553	0.34837	0.90567	0.088
Mof_C 	C 	0.24023	0.35867	0.97267	0.452
Mof_H 	H 	0.24603	0.37117	0.07257	0.83
Mof_C 	C 	0.20643	0.35087	0.89517	0.186
Mof_N 	N 	0.29753	0.34697	0.94767	-0.082
Mof_C 	C 	0.25963	0.33837	0.90367	-0.05
Mof_C 	C 	0.23383	0.34707	0.98967	-0.498
Mof_H 	H 	0.24093	0.36027	0.08777	-0.777
Mof_C 	C 	0.19793	0.33517	0.91967	-0.095
Mof_N 	N 	0.3166	0.2837	0.281	-0.051
Mof_C 	C 	0.3183	0.2505	0.239	0.095
Mof_C 	C 	0.308	0.2149	0.306	0.504
Mof_H 	H 	0.2955	0.2082	0.4059	0.879
Mof_C 	C 	0.3158	0.1889	0.2285	0.224
Mof_N 	N 	0.3197	0.2839	0.281	-0.078
Mof_C 	C 	0.3283	0.2546	0.237	-0.057
Mof_C 	C 	0.3196	0.2201	0.323	-0.525
Mof_H 	H 	0.3064	0.214	0.4211	-0.845
Mof_C 	C 	0.3315	0.1961	0.253	-0.128
Mof_N 	N 	0.98327	0.61703	0.61433	-0.051
Mof_C 	C 	0.98497	0.58383	0.57233	0.082
Mof_C 	C 	0.97467	0.54823	0.63933	0.422
Mof_H 	H 	0.96217	0.54153	0.73923	0.763
Mof_C 	C 	0.98247	0.52223	0.56183	0.191
Mof_N 	N 	0.98637	0.61723	0.61433	-0.077
Mof_C 	C 	0.99497	0.58793	0.57033	-0.04
Mof_C 	C 	0.98627	0.55343	0.65633	-0.455
Mof_H 	H 	0.97307	0.54733	0.75443	-0.724
Mof_C 	C 	0.99817	0.52943	0.58633	-0.093
Mof_N 	N 	0.64993	0.95037	0.94767	-0.054
Mof_C 	C 	0.65163	0.91717	0.90567	0.088
Mof_C 	C 	0.64133	0.88157	0.97267	0.447
Mof_H 	H 	0.62883	0.87487	0.07257	0.824
Mof_C 	C 	0.64913	0.85557	0.89517	0.183
Mof_N 	N 	0.65303	0.95057	0.94767	-0.082
Mof_C 	C 	0.66163	0.92127	0.90367	-0.049
Mof_C 	C 	0.65293	0.88677	0.98967	-0.493
Mof_H 	H 	0.63973	0.88067	0.08777	-0.77
Mof_C 	C 	0.66483	0.86277	0.91967	-0.093
Mof_N 	N 	0.0329	0.7163	0.719	-0.053
Mof_C 	C 	0.0678	0.7495	0.761	0.066
Mof_C 	C 	0.0931	0.7851	0.694	0.335
Mof_H 	H 	0.0873	0.7918	0.5941	0.649
Mof_C 	C 	0.1269	0.8111	0.7715	0.128
Mof_N 	N 	0.0358	0.7161	0.719	-0.077
Mof_C 	C 	0.0737	0.7454	0.763	-0.019
Mof_C 	C 	0.0995	0.7799	0.677	-0.377
Mof_H 	H 	0.0924	0.786	0.5789	-0.599
Mof_C 	C 	0.1354	0.8039	0.747	-0.03
Mof_N 	N 	0.69957	0.04963	0.05233	-0.05
Mof_C 	C 	0.73447	0.08283	0.09433	0.068
Mof_C 	C 	0.75977	0.11843	0.02733	0.369
Mof_H 	H 	0.75397	0.12513	0.92743	0.668
Mof_C 	C 	0.79357	0.14443	0.10483	0.161
Mof_N 	N 	0.70247	0.04943	0.05233	-0.073
Mof_C 	C 	0.74037	0.07873	0.09633	-0.021
Mof_C 	C 	0.76617	0.11323	0.01033	-0.384
Mof_H 	H 	0.75907	0.11933	0.91223	-0.638
Mof_C 	C 	0.80207	0.13723	0.08033	-0.056
Mof_N 	N 	0.36623	0.38297	0.38567	-0.052
Mof_C 	C 	0.40113	0.41617	0.42767	0.073
Mof_C 	C 	0.42643	0.45177	0.36067	0.368
Mof_H 	H 	0.42063	0.45847	0.26077	0.694
Mof_C 	C 	0.46023	0.47777	0.43817	0.143
Mof_N 	N 	0.36913	0.38277	0.38567	-0.078
Mof_C 	C 	0.40703	0.41207	0.42967	-0.027
Mof_C 	C 	0.43283	0.44657	0.34367	-0.406
Mof_H 	H 	0.42573	0.45267	0.24557	-0.646
Mof_C 	C 	0.46873	0.47057	0.41367	-0.044
Mof_N 	N 	0.6834	0.9671	0.719	-0.053
Mof_C 	C 	0.6817	0.9322	0.761	0.066
Mof_C 	C 	0.692	0.9069	0.694	0.332
Mof_H 	H 	0.7045	0.9127	0.5941	0.645
Mof_C 	C 	0.6842	0.8731	0.7715	0.128
Mof_N 	N 	0.6803	0.9642	0.719	-0.077
Mof_C 	C 	0.6717	0.9263	0.763	-0.019
Mof_C 	C 	0.6804	0.9005	0.677	-0.375
Mof_H 	H 	0.6936	0.9076	0.5789	-0.595
Mof_C 	C 	0.6685	0.8646	0.747	-0.029
Mof_N 	N 	0.35007	0.30043	0.05233	-0.05
Mof_C 	C 	0.34837	0.26553	0.09433	0.069
Mof_C 	C 	0.35867	0.24023	0.02733	0.369
Mof_H 	H 	0.37117	0.24603	0.92743	0.669
Mof_C 	C 	0.35087	0.20643	0.10483	0.161
Mof_N 	N 	0.34697	0.29753	0.05233	-0.073
Mof_C 	C 	0.33837	0.25963	0.09633	-0.021
Mof_C 	C 	0.34707	0.23383	0.01033	-0.385
Mof_H 	H 	0.36027	0.24093	0.91223	-0.639
Mof_C 	C 	0.33517	0.19793	0.08033	-0.056
Mof_N 	N 	0.01673	0.63377	0.38567	-0.052
Mof_C 	C 	0.01503	0.59887	0.42767	0.072
Mof_C 	C 	0.02533	0.57357	0.36067	0.374
Mof_H 	H 	0.03783	0.57937	0.26077	0.701
Mof_C 	C 	0.01753	0.53977	0.43817	0.146
Mof_N 	N 	0.01363	0.63087	0.38567	-0.078
Mof_C 	C 	0.00503	0.59297	0.42967	-0.029
Mof_C 	C 	0.01373	0.56717	0.34367	-0.41
Mof_H 	H 	0.02693	0.57427	0.24557	-0.654
Mof_C 	C 	0.00183	0.53127	0.41367	-0.049
Mof_N 	N 	0.2837	0.3166	0.719	-0.053
Mof_C 	C 	0.2505	0.3183	0.761	0.066
Mof_C 	C 	0.2149	0.308	0.694	0.332
Mof_H 	H 	0.2082	0.2955	0.5941	0.646
Mof_C 	C 	0.1889	0.3158	0.7715	0.127
Mof_N 	N 	0.2839	0.3197	0.719	-0.077
Mof_C 	C 	0.2546	0.3283	0.763	-0.019
Mof_C 	C 	0.2201	0.3196	0.677	-0.375
Mof_H 	H 	0.214	0.3064	0.5789	-0.596
Mof_C 	C 	0.1961	0.3315	0.747	-0.028
Mof_N 	N 	0.95037	0.64993	0.05233	-0.05
Mof_C 	C 	0.91717	0.65163	0.09433	0.068
Mof_C 	C 	0.88157	0.64133	0.02733	0.365
Mof_H 	H 	0.87487	0.62883	0.92743	0.663
Mof_C 	C 	0.85557	0.64913	0.10483	0.159
Mof_N 	N 	0.95057	0.65303	0.05233	-0.073
Mof_C 	C 	0.92127	0.66163	0.09633	-0.02
Mof_C 	C 	0.88677	0.65293	0.01033	-0.381
Mof_H 	H 	0.88067	0.63973	0.91223	-0.633
Mof_C 	C 	0.86277	0.66483	0.08033	-0.054
Mof_N 	N 	0.61703	0.98327	0.38567	-0.052
Mof_C 	C 	0.58383	0.98497	0.42767	0.074
Mof_C 	C 	0.54823	0.97467	0.36067	0.363
Mof_H 	H 	0.54153	0.96217	0.26077	0.69
Mof_C 	C 	0.52223	0.98247	0.43817	0.141
Mof_N 	N 	0.61723	0.98637	0.38567	-0.077
Mof_C 	C 	0.58793	0.99497	0.42967	-0.026
Mof_C 	C 	0.55343	0.98627	0.34367	-0.403
Mof_H 	H 	0.54733	0.97307	0.24557	-0.641
Mof_C 	C 	0.52943	0.99817	0.41367	-0.039
Mof_Mn	Mn	0.36959	0.03626	0.83333	0.723
Mof_N 	N 	0.31042	0.97709	0.83333	-0.114
Mof_Mn	Mn	0.96374	0.33333	0.83333	0.726
Mof_N 	N 	0.02291	0.33333	0.83333	-0.115
Mof_Mn	Mn	0.66667	0.63041	0.83333	0.724
Mof_N 	N 	0.66667	0.68958	0.83333	-0.115
Mof_Mn	Mn	0.03626	0.36959	0.16667	0.749
Mof_N 	N 	0.97709	0.31042	0.16667	-0.109
Mof_Mn	Mn	0.70292	0.70292	0.5	0.741
Mof_N 	N 	0.64375	0.64375	0.5	-0.112
Mof_Mn	Mn	0.33333	0.96374	0.16667	0.752
Mof_N 	N 	0.33333	0.02291	0.16667	-0.111
Mof_Mn	Mn	-3.40779e-17	0.29708	0.5	0.739
Mof_N 	N 	-1.35643e-17	0.35625	0.5	-0.113
Mof_Mn	Mn	0.63041	0.66667	0.16667	0.75
Mof_N 	N 	0.68958	0.66667	0.16667	-0.11
Mof_Mn	Mn	0.29708	0	0.5	0.739
Mof_N 	N 	0.35625	0	0.5	-0.113
Mof_Mn	Mn	0.63041	0.96374	0.16667	0.752
Mof_N 	N 	0.68958	0.02291	0.16667	-0.111
Mof_Mn	Mn	0.29708	0.29708	0.5	0.741
Mof_N 	N 	0.35625	0.35625	0.5	-0.112
Mof_Mn	Mn	0.03626	0.66667	0.16667	0.749
Mof_N 	N 	0.97709	0.66667	0.16667	-0.109
Mof_Mn	Mn	0.70292	0	0.5	0.739
Mof_N 	N 	0.64375	0	0.5	-0.113
Mof_Mn	Mn	0.33333	0.36959	0.16667	0.75
Mof_N 	N 	0.33333	0.31042	0.16667	-0.11
Mof_Mn	Mn	-5.45915e-17	0.70292	0.5	0.739
Mof_N 	N 	-5.45915e-17	0.64375	0.5	-0.113
Mof_Mn	Mn	0.96374	0.63041	0.83333	0.726
Mof_N 	N 	0.02291	0.68958	0.83333	-0.115
Mof_Mn	Mn	0.66667	0.03626	0.83333	0.723
Mof_N 	N 	0.66667	0.97709	0.83333	-0.114
Mof_Mn	Mn	0.36959	0.33333	0.83333	0.724
Mof_N 	N 	0.31042	0.33333	0.83333	-0.115
Mof_Cl	Cl	0.39684	0	-0	-0.438
Mof_Cl	Cl	0.06351	0.33333	0.33333	-0.45
Mof_Cl	Cl	0.73017	0.66667	0.66667	-0.45
Mof_Cl	Cl	-0	0.39684	-0	-0.438
Mof_Cl	Cl	0.66667	0.73017	0.33333	-0.45
Mof_Cl	Cl	0.33333	0.06351	0.66667	-0.45
Mof_Cl	Cl	0.60316	0.60316	-0	-0.436
Mof_Cl	Cl	0.26983	0.93649	0.33333	-0.45
Mof_Cl	Cl	0.93649	0.26983	0.66667	-0.45
Mof_Cl	Cl	0.60316	0	-0	-0.438
Mof_Cl	Cl	0.26983	0.33333	0.33333	-0.45
Mof_Cl	Cl	0.93649	0.66667	0.66667	-0.45
Mof_Cl	Cl	-0	0.60316	-0	-0.438
Mof_Cl	Cl	0.66667	0.93649	0.33333	-0.449
Mof_Cl	Cl	0.33333	0.26983	0.66667	-0.45
Mof_Cl	Cl	0.39684	0.39684	-0	-0.436
Mof_Cl	Cl	0.06351	0.73017	0.33333	-0.45
Mof_Cl	Cl	0.73017	0.06351	0.66667	-0.45
Mof_O 	O 	0.1515	0.8485	0.7082	-0.219
Mof_O 	O 	0.1623	0.8377	0.6664	-0.002
Mof_O 	O 	0.81817	0.18183	0.04153	-0.186
Mof_O 	O 	0.82897	0.17103	0.99973	-0.042
Mof_O 	O 	0.48483	0.51517	0.37487	-0.233
Mof_O 	O 	0.49563	0.50437	0.33307	0.014
Mof_O 	O 	0.1515	0.303	0.7082	-0.219
Mof_O 	O 	0.1623	0.3246	0.6664	-0.003
Mof_O 	O 	0.81817	0.63633	0.04153	-0.186
Mof_O 	O 	0.82897	0.65793	0.99973	-0.042
Mof_O 	O 	0.48483	0.96967	0.37487	-0.23
Mof_O 	O 	0.49563	0.99127	0.33307	0.011
Mof_O 	O 	0.697	0.8485	0.7082	-0.219
Mof_O 	O 	0.6754	0.8377	0.6664	-0.002
Mof_O 	O 	0.36367	0.18183	0.04153	-0.188
Mof_O 	O 	0.34207	0.17103	0.99973	-0.041
Mof_O 	O 	0.03033	0.51517	0.37487	-0.237
Mof_O 	O 	0.00873	0.50437	0.33307	0.018
Mof_O 	O 	0.8485	0.1515	0.2918	-0.308
Mof_O 	O 	0.8377	0.1623	0.3336	0.087
Mof_O 	O 	0.51517	0.48483	0.62513	-0.277
Mof_O 	O 	0.50437	0.49563	0.66693	0.053
Mof_O 	O 	0.18183	0.81817	0.95847	-0.32
Mof_O 	O 	0.17103	0.82897	0.00027	0.105
Mof_O 	O 	0.303	0.1515	0.2918	-0.308
Mof_O 	O 	0.3246	0.1623	0.3336	0.087
Mof_O 	O 	0.96967	0.48483	0.62513	-0.275
Mof_O 	O 	0.99127	0.49563	0.66693	0.05
Mof_O 	O 	0.63633	0.81817	0.95847	-0.319
Mof_O 	O 	0.65793	0.82897	0.00027	0.104
Mof_O 	O 	0.8485	0.697	0.2918	-0.308
Mof_O 	O 	0.8377	0.6754	0.3336	0.087
Mof_O 	O 	0.51517	0.03033	0.62513	-0.28
Mof_O 	O 	0.50437	0.00873	0.66693	0.056
Mof_O 	O 	0.18183	0.36367	0.95847	-0.322
Mof_O 	O 	0.17103	0.34207	0.00027	0.107
_end
