data_functionalizedCrystal
_audit_creation_method	'EQeq! by Chris Wilmer'
_symmetry_space_group_name_H-M	'P1'
_symmetry_Int_Tables_number	1
_symmetry_cell_setting	triclinic
loop_
_symmetry_equiv_pos_as_xyz
  x,y,z
_cell_length_a	9.015
_cell_length_b	9.4739
_cell_length_c	19.7373
_cell_angle_alpha	88.964
_cell_angle_beta	78.938
_cell_angle_gamma	85.489
loop_
_atom_site_label
_atom_site_type_symbol
_atom_site_fract_x
_atom_site_fract_y
_atom_site_fract_z
_atom_site_charge
Mof_Al	Al	0.15988	0.63639	0.02591	7.135
Mof_Al	Al	0.72449	0.88045	0.10985	6.798
Mof_Al	Al	0.14973	0.84515	0.29312	6.763
Mof_Al	Al	0.26612	0.893	0.49047	6.721
Mof_Al	Al	0.14981	0.32512	0.45137	6.908
Mof_Al	Al	0.2918	0.05933	0.09872	7.123
Mof_P 	P 	0.44837	0.15512	0.43532	1.397
Mof_P 	P 	0.4414	0.94901	0.21998	1.337
Mof_P 	P 	0.13438	0.64856	0.42451	1.85
Mof_P 	P 	0.03316	0.06567	0.39997	1.666
Mof_P 	P 	0.37925	0.85852	0.96883	1.797
Mof_P 	P 	0.04227	0.83409	0.15265	1.843
Mof_P 	P 	0.84205	0.68875	0.9796	1.871
Mof_O 	O 	0.4671	0.197	0.35883	-0.641
Mof_O 	O 	0.555	0.8571	0.16661	-1.998
Mof_O 	O 	0.5276	0.0353	0.25997	-0.557
Mof_O 	O 	0.1153	0.9655	0.12468	-1.948
Mof_O 	O 	0.3723	0.9232	0.03888	-2.181
Mof_O 	O 	0.3338	0.0389	0.18345	-1.992
Mof_O 	O 	0.3173	0.2537	0.47329	-2.024
Mof_O 	O 	0.7508	0.7478	0.04766	-2.168
Mof_O 	O 	0.2798	0.954	0.92812	-2.185
Mof_O 	O 	0.0102	0.6669	0.98331	-2.25
Mof_O 	O 	0.0638	0.7984	0.22631	-1.994
Mof_O 	O 	0.1827	0.4898	0.41535	-2.052
Mof_O 	O 	0.8715	0.8541	0.15539	-2.053
Mof_O 	O 	0.345	0.8456	0.26769	-1.93
Mof_O 	O 	0.2514	0.7197	0.45547	-1.885
Mof_O 	O 	0.979	0.6627	0.47151	-2.211
Mof_O 	O 	0.1245	0.9747	0.44213	-1.957
Mof_O 	O 	0.0845	0.2174	0.3946	-2.043
Mof_O 	O 	0.0597	0.0061	0.3265	-1.934
Mof_O 	O 	0.1067	0.7026	0.10929	-2.189
Mof_O 	O 	0.8244	0.7878	0.92038	-1.974
Mof_O 	O 	0.4088	0.0026	0.44482	-1.837
Mof_O 	O 	0.3125	0.7143	0.97752	-2.092
Mof_O 	O 	0.7876	0.544	0.96796	-2.087
Mof_O 	O 	0.8627	0.0729	0.42909	-1.855
Mof_O 	O 	0.5891	0.1856	0.46128	-1.596
Mof_O 	O 	0.12	0.7091	0.35397	-1.995
Mof_O 	O 	0.5387	0.8359	0.92819	-1.764
Mof_H 	H 	0.528	0.108	0.341	0.183
Mof_Al	Al	0.84012	0.36361	0.97409	7.135
Mof_Al	Al	0.27551	0.11955	0.89015	6.798
Mof_Al	Al	0.85027	0.15485	0.70688	6.763
Mof_Al	Al	0.73388	0.107	0.50953	6.721
Mof_Al	Al	0.85019	0.67488	0.54863	6.908
Mof_Al	Al	0.7082	0.94067	0.90128	7.123
Mof_P 	P 	0.55163	0.84488	0.56468	1.397
Mof_P 	P 	0.5586	0.05099	0.78002	1.337
Mof_P 	P 	0.86562	0.35144	0.57549	1.85
Mof_P 	P 	0.96684	0.93433	0.60003	1.666
Mof_P 	P 	0.62075	0.14148	0.03117	1.797
Mof_P 	P 	0.95773	0.16591	0.84735	1.843
Mof_P 	P 	0.15795	0.31125	0.0204	1.871
Mof_O 	O 	0.5329	0.803	0.64117	-0.641
Mof_O 	O 	0.445	0.1429	0.83339	-1.998
Mof_O 	O 	0.4724	0.9647	0.74003	-0.557
Mof_O 	O 	0.8847	0.0345	0.87532	-1.948
Mof_O 	O 	0.6277	0.0768	0.96112	-2.181
Mof_O 	O 	0.6662	0.9611	0.81655	-1.992
Mof_O 	O 	0.6827	0.7463	0.52671	-2.024
Mof_O 	O 	0.2492	0.2522	0.95234	-2.168
Mof_O 	O 	0.7202	0.046	0.07188	-2.185
Mof_O 	O 	0.9898	0.3331	0.01669	-2.25
Mof_O 	O 	0.9362	0.2016	0.77369	-1.994
Mof_O 	O 	0.8173	0.5102	0.58465	-2.052
Mof_O 	O 	0.1285	0.1459	0.84461	-2.053
Mof_O 	O 	0.655	0.1544	0.73231	-1.93
Mof_O 	O 	0.7486	0.2803	0.54453	-1.885
Mof_O 	O 	0.021	0.3373	0.52849	-2.211
Mof_O 	O 	0.8755	0.0253	0.55787	-1.957
Mof_O 	O 	0.9155	0.7826	0.6054	-2.043
Mof_O 	O 	0.9403	0.9939	0.6735	-1.934
Mof_O 	O 	0.8933	0.2974	0.89071	-2.189
Mof_O 	O 	0.1756	0.2122	0.07962	-1.974
Mof_O 	O 	0.5912	0.9974	0.55518	-1.837
Mof_O 	O 	0.6875	0.2857	0.02248	-2.092
Mof_O 	O 	0.2124	0.456	0.03204	-2.087
Mof_O 	O 	0.1373	0.9271	0.57091	-1.855
Mof_O 	O 	0.4109	0.8144	0.53872	-1.596
Mof_O 	O 	0.88	0.2909	0.64603	-1.995
Mof_O 	O 	0.4613	0.1641	0.07181	-1.764
Mof_H 	H 	0.472	0.892	0.659	0.183
_end
