data_functionalizedCrystal
_audit_creation_method	'EQeq! by Chris Wilmer'
_symmetry_space_group_name_H-M	'P1'
_symmetry_Int_Tables_number	1
_symmetry_cell_setting	triclinic
loop_
_symmetry_equiv_pos_as_xyz
  x,y,z
_cell_length_a	14.392
_cell_length_b	14.392
_cell_length_c	17.416
_cell_angle_alpha	90
_cell_angle_beta	90
_cell_angle_gamma	120
loop_
_atom_site_label
_atom_site_type_symbol
_atom_site_fract_x
_atom_site_fract_y
_atom_site_fract_z
_atom_site_charge
Mof_O 	O 	0.6537	0.5006	0.16603	-0.56
Mof_C 	C 	0.5969	0.5671	0.0339	0.417
Mof_O 	O 	0.6989	0.6388	0.0576	1.097
Mof_H 	H 	0.7261	0.6055	0.0788	-0.219
Mof_H 	H 	0.664	0.6147	0.057	-1.08
Mof_O 	O 	0.4994	0.1531	0.16603	-0.559
Mof_C 	C 	0.4329	0.0298	0.0339	0.418
Mof_O 	O 	0.3612	0.0601	0.0576	1.097
Mof_H 	H 	0.3945	0.1206	0.0788	-0.219
Mof_H 	H 	0.3853	0.0493	0.057	-1.08
Mof_O 	O 	0.8469	0.3463	0.16603	-0.558
Mof_C 	C 	0.9702	0.4031	0.0339	0.418
Mof_O 	O 	0.9399	0.3011	0.0576	1.097
Mof_H 	H 	0.8794	0.2739	0.0788	-0.219
Mof_H 	H 	0.9507	0.336	0.057	-1.08
Mof_O 	O 	0.3463	0.4994	0.66603	-0.559
Mof_C 	C 	0.4031	0.4329	0.5339	0.418
Mof_O 	O 	0.3011	0.3612	0.5576	1.097
Mof_H 	H 	0.2739	0.3945	0.5788	-0.219
Mof_H 	H 	0.336	0.3853	0.557	-1.081
Mof_O 	O 	0.5006	0.8469	0.66603	-0.559
Mof_C 	C 	0.5671	0.9702	0.5339	0.418
Mof_O 	O 	0.6388	0.9399	0.5576	1.097
Mof_H 	H 	0.6055	0.8794	0.5788	-0.219
Mof_H 	H 	0.6147	0.9507	0.557	-1.081
Mof_O 	O 	0.1531	0.6537	0.66603	-0.559
Mof_C 	C 	0.0298	0.5969	0.5339	0.418
Mof_O 	O 	0.0601	0.6989	0.5576	1.097
Mof_H 	H 	0.1206	0.7261	0.5788	-0.219
Mof_H 	H 	0.0493	0.664	0.557	-1.081
Mof_O 	O 	0.5006	0.6537	0.83397	-0.559
Mof_C 	C 	0.5671	0.5969	0.9661	0.418
Mof_O 	O 	0.6388	0.6989	0.9424	1.097
Mof_H 	H 	0.6055	0.7261	0.9212	-0.219
Mof_H 	H 	0.6147	0.664	0.943	-1.08
Mof_O 	O 	0.1531	0.4994	0.83397	-0.559
Mof_C 	C 	0.0298	0.4329	0.9661	0.418
Mof_O 	O 	0.0601	0.3612	0.9424	1.097
Mof_H 	H 	0.1206	0.3945	0.9212	-0.219
Mof_H 	H 	0.0493	0.3853	0.943	-1.08
Mof_O 	O 	0.3463	0.8469	0.83397	-0.558
Mof_C 	C 	0.4031	0.9702	0.9661	0.418
Mof_O 	O 	0.3011	0.9399	0.9424	1.097
Mof_H 	H 	0.2739	0.8794	0.9212	-0.219
Mof_H 	H 	0.336	0.9507	0.943	-1.08
Mof_O 	O 	0.4994	0.3463	0.33397	-0.559
Mof_C 	C 	0.4329	0.4031	0.4661	0.418
Mof_O 	O 	0.3612	0.3011	0.4424	1.097
Mof_H 	H 	0.3945	0.2739	0.4212	-0.219
Mof_H 	H 	0.3853	0.336	0.443	-1.081
Mof_O 	O 	0.8469	0.5006	0.33397	-0.559
Mof_C 	C 	0.9702	0.5671	0.4661	0.418
Mof_O 	O 	0.9399	0.6388	0.4424	1.097
Mof_H 	H 	0.8794	0.6055	0.4212	-0.219
Mof_H 	H 	0.9507	0.6147	0.443	-1.081
Mof_O 	O 	0.6537	0.1531	0.33397	-0.559
Mof_C 	C 	0.5969	0.0298	0.4661	0.418
Mof_O 	O 	0.6989	0.0601	0.4424	1.097
Mof_H 	H 	0.7261	0.1206	0.4212	-0.219
Mof_H 	H 	0.664	0.0493	0.443	-1.081
Mof_O 	O 	0.3463	0.4994	0.83397	-0.559
Mof_C 	C 	0.4031	0.4329	0.9661	0.418
Mof_O 	O 	0.3011	0.3612	0.9424	1.097
Mof_H 	H 	0.2739	0.3945	0.9212	-0.219
Mof_H 	H 	0.336	0.3853	0.943	-1.08
Mof_O 	O 	0.5006	0.8469	0.83397	-0.559
Mof_C 	C 	0.5671	0.9702	0.9661	0.418
Mof_O 	O 	0.6388	0.9399	0.9424	1.097
Mof_H 	H 	0.6055	0.8794	0.9212	-0.219
Mof_H 	H 	0.6147	0.9507	0.943	-1.08
Mof_O 	O 	0.1531	0.6537	0.83397	-0.558
Mof_C 	C 	0.0298	0.5969	0.9661	0.418
Mof_O 	O 	0.0601	0.6989	0.9424	1.097
Mof_H 	H 	0.1206	0.7261	0.9212	-0.219
Mof_H 	H 	0.0493	0.664	0.943	-1.08
Mof_O 	O 	0.6537	0.5006	0.33397	-0.559
Mof_C 	C 	0.5969	0.5671	0.4661	0.418
Mof_O 	O 	0.6989	0.6388	0.4424	1.097
Mof_H 	H 	0.7261	0.6055	0.4212	-0.219
Mof_H 	H 	0.664	0.6147	0.443	-1.081
Mof_O 	O 	0.4994	0.1531	0.33397	-0.559
Mof_C 	C 	0.4329	0.0298	0.4661	0.418
Mof_O 	O 	0.3612	0.0601	0.4424	1.097
Mof_H 	H 	0.3945	0.1206	0.4212	-0.219
Mof_H 	H 	0.3853	0.0493	0.443	-1.081
Mof_O 	O 	0.8469	0.3463	0.33397	-0.559
Mof_C 	C 	0.9702	0.4031	0.4661	0.418
Mof_O 	O 	0.9399	0.3011	0.4424	1.097
Mof_H 	H 	0.8794	0.2739	0.4212	-0.219
Mof_H 	H 	0.9507	0.336	0.443	-1.081
Mof_O 	O 	0.4994	0.3463	0.16603	-0.559
Mof_C 	C 	0.4329	0.4031	0.0339	0.418
Mof_O 	O 	0.3612	0.3011	0.0576	1.097
Mof_H 	H 	0.3945	0.2739	0.0788	-0.219
Mof_H 	H 	0.3853	0.336	0.057	-1.08
Mof_O 	O 	0.8469	0.5006	0.16603	-0.559
Mof_C 	C 	0.9702	0.5671	0.0339	0.418
Mof_O 	O 	0.9399	0.6388	0.0576	1.097
Mof_H 	H 	0.8794	0.6055	0.0788	-0.219
Mof_H 	H 	0.9507	0.6147	0.057	-1.08
Mof_O 	O 	0.6537	0.1531	0.16603	-0.558
Mof_C 	C 	0.5969	0.0298	0.0339	0.418
Mof_O 	O 	0.6989	0.0601	0.0576	1.097
Mof_H 	H 	0.7261	0.1206	0.0788	-0.219
Mof_H 	H 	0.664	0.0493	0.057	-1.08
Mof_O 	O 	0.5006	0.6537	0.66603	-0.559
Mof_C 	C 	0.5671	0.5969	0.5339	0.418
Mof_O 	O 	0.6388	0.6989	0.5576	1.097
Mof_H 	H 	0.6055	0.7261	0.5788	-0.219
Mof_H 	H 	0.6147	0.664	0.557	-1.081
Mof_O 	O 	0.1531	0.4994	0.66603	-0.559
Mof_C 	C 	0.0298	0.4329	0.5339	0.418
Mof_O 	O 	0.0601	0.3612	0.5576	1.097
Mof_H 	H 	0.1206	0.3945	0.5788	-0.219
Mof_H 	H 	0.0493	0.3853	0.557	-1.081
Mof_O 	O 	0.3463	0.8469	0.66603	-0.559
Mof_C 	C 	0.4031	0.9702	0.5339	0.418
Mof_O 	O 	0.3011	0.9399	0.5576	1.097
Mof_H 	H 	0.2739	0.8794	0.5788	-0.219
Mof_H 	H 	0.336	0.9507	0.557	-1.081
Mof_Fe	Fe	0.744	0.488	0.25	2.164
Mof_O 	O 	0.82675	0.6535	0.25	-0.374
Mof_Co	Co	0.742	0.484	0.25	-0.423
Mof_Fe	Fe	0.512	0.256	0.25	2.164
Mof_O 	O 	0.3465	0.17325	0.25	-0.374
Mof_Co	Co	0.516	0.258	0.25	-0.423
Mof_Fe	Fe	0.744	0.256	0.25	2.164
Mof_O 	O 	0.82675	0.17325	0.25	-0.374
Mof_Co	Co	0.742	0.258	0.25	-0.423
Mof_Fe	Fe	0.256	0.512	0.75	2.164
Mof_O 	O 	0.17325	0.3465	0.75	-0.374
Mof_Co	Co	0.258	0.516	0.75	-0.423
Mof_Fe	Fe	0.488	0.744	0.75	2.164
Mof_O 	O 	0.6535	0.82675	0.75	-0.374
Mof_Co	Co	0.484	0.742	0.75	-0.423
Mof_Fe	Fe	0.256	0.744	0.75	2.164
Mof_O 	O 	0.17325	0.82675	0.75	-0.374
Mof_Co	Co	0.258	0.742	0.75	-0.423
Mof_O 	O 	0.66667	0.33333	0.25	-0.916
Mof_O 	O 	0.33333	0.66667	0.75	-0.916
Mof_C 	C 	0.5633	0.4367	0.1375	0.625
Mof_C 	C 	0.5302	0.4698	0.0674	-0.469
Mof_C 	C 	0.5633	0.1266	0.1375	0.625
Mof_C 	C 	0.5302	0.0604	0.0674	-0.469
Mof_C 	C 	0.8734	0.4367	0.1375	0.625
Mof_C 	C 	0.9396	0.4698	0.0674	-0.469
Mof_C 	C 	0.4367	0.5633	0.6375	0.625
Mof_C 	C 	0.4698	0.5302	0.5674	-0.469
Mof_C 	C 	0.4367	0.8734	0.6375	0.625
Mof_C 	C 	0.4698	0.9396	0.5674	-0.469
Mof_C 	C 	0.1266	0.5633	0.6375	0.625
Mof_C 	C 	0.0604	0.5302	0.5674	-0.469
Mof_C 	C 	0.4367	0.5633	0.8625	0.625
Mof_C 	C 	0.4698	0.5302	0.9326	-0.469
Mof_C 	C 	0.1266	0.5633	0.8625	0.625
Mof_C 	C 	0.0604	0.5302	0.9326	-0.469
Mof_C 	C 	0.4367	0.8734	0.8625	0.625
Mof_C 	C 	0.4698	0.9396	0.9326	-0.469
Mof_C 	C 	0.5633	0.4367	0.3625	0.625
Mof_C 	C 	0.5302	0.4698	0.4326	-0.469
Mof_C 	C 	0.8734	0.4367	0.3625	0.625
Mof_C 	C 	0.9396	0.4698	0.4326	-0.469
Mof_C 	C 	0.5633	0.1266	0.3625	0.625
Mof_C 	C 	0.5302	0.0604	0.4326	-0.469
_end
