data_functionalizedCrystal
_audit_creation_method	'EQeq! by Chris Wilmer'
_symmetry_space_group_name_H-M	'P1'
_symmetry_Int_Tables_number	1
_symmetry_cell_setting	triclinic
loop_
_symmetry_equiv_pos_as_xyz
  x,y,z
_cell_length_a	27.221
_cell_length_b	8.104
_cell_length_c	23.537
_cell_angle_alpha	90
_cell_angle_beta	98.906
_cell_angle_gamma	90
loop_
_atom_site_label
_atom_site_type_symbol
_atom_site_fract_x
_atom_site_fract_y
_atom_site_fract_z
_atom_site_charge
Mof_Cd	Cd	0.04008	0.6247	0.50114	3.163
Mof_O 	O 	0.98564	0.7334	0.5416	-0.675
Mof_N 	N 	0.09422	0.8039	0.51471	-0.353
Mof_C 	C 	0.94577	0.6846	0.55552	0.587
Mof_O 	O 	0.92547	0.5487	0.54231	-0.67
Mof_N 	N 	0.23372	0.1832	0.49834	-0.135
Mof_C 	C 	0.91979	0.8001	0.59162	-0.375
Mof_O 	O 	0.85268	0.1114	0.69625	-0.365
Mof_C 	C 	0.93767	0.9565	0.60275	0.325
Mof_H 	H 	0.9649	0.993	0.5868	-0.079
Mof_O 	O 	0.93852	0.4945	0.92357	-0.669
Mof_C 	C 	0.91544	0.0598	0.63755	-0.44
Mof_H 	H 	0.9273	0.1667	0.6445	0.187
Mof_O 	O 	0.9986	0.3067	0.92362	-0.654
Mof_C 	C 	0.87565	0.0055	0.66208	0.427
Mof_C 	C 	0.85661	0.8545	0.6495	-0.455
Mof_H 	H 	0.8288	0.8199	0.6647	0.195
Mof_C 	C 	0.87782	0.7524	0.6146	0.333
Mof_H 	H 	0.8641	0.6487	0.6059	-0.074
Mof_C 	C 	0.88133	0.1752	0.74552	0.384
Mof_C 	C 	0.92332	0.0987	0.77181	-0.391
Mof_H 	H 	0.935	0.004	0.756	0.168
Mof_C 	C 	0.94867	0.1652	0.82304	0.266
Mof_H 	H 	0.9771	0.1128	0.8416	-0.054
Mof_C 	C 	0.93209	0.3078	0.84653	-0.346
Mof_C 	C 	0.88906	0.3803	0.81799	0.282
Mof_H 	H 	0.8769	0.4747	0.8334	-0.067
Mof_C 	C 	0.86419	0.3177	0.7682	-0.395
Mof_H 	H 	0.8358	0.3702	0.7496	0.175
Mof_C 	C 	0.95863	0.3751	0.9018	0.559
Mof_C 	C 	0.13488	0.793	0.49049	0.106
Mof_H 	H 	0.1397	0.6983	0.4697	-0.043
Mof_C 	C 	0.17069	0.9159	0.4946	-0.133
Mof_H 	H 	0.1989	0.9032	0.4772	0.077
Mof_C 	C 	0.1636	0.0593	0.52531	0.008
Mof_C 	C 	0.12132	0.069	0.55093	-0.142
Mof_H 	H 	0.1153	0.1615	0.5722	0.069
Mof_C 	C 	0.08811	0.9389	0.54437	0.116
Mof_H 	H 	0.0598	0.9468	0.5618	-0.043
Mof_C 	C 	0.19879	0.2008	0.52727	0.229
Mof_C 	C 	0.19	0.3507	0.5611	-0.726
Mof_H 	H 	0.203	0.3327	0.601	0.244
Mof_H 	H 	0.155	0.3723	0.5571	0.24
Mof_H 	H 	0.2065	0.4435	0.5472	0.254
Mof_Zn	Zn	0.03961	0.6257	0.50188	-1.104
Mof_Cd	Cd	0.54008	0.1247	0.50114	3.162
Mof_O 	O 	0.48564	0.2334	0.5416	-0.676
Mof_N 	N 	0.59422	0.3039	0.51471	-0.354
Mof_C 	C 	0.44577	0.1846	0.55552	0.586
Mof_O 	O 	0.42547	0.0487	0.54231	-0.671
Mof_N 	N 	0.73372	0.6832	0.49834	-0.136
Mof_C 	C 	0.41979	0.3001	0.59162	-0.376
Mof_O 	O 	0.35268	0.6114	0.69625	-0.366
Mof_C 	C 	0.43767	0.4565	0.60275	0.323
Mof_H 	H 	0.4649	0.493	0.5868	-0.08
Mof_O 	O 	0.43852	0.9945	0.92357	-0.669
Mof_C 	C 	0.41544	0.5598	0.63755	-0.44
Mof_H 	H 	0.4273	0.6667	0.6445	0.187
Mof_O 	O 	0.4986	0.8067	0.92362	-0.653
Mof_C 	C 	0.37565	0.5055	0.66208	0.429
Mof_C 	C 	0.35661	0.3545	0.6495	-0.457
Mof_H 	H 	0.3288	0.3199	0.6647	0.196
Mof_C 	C 	0.37782	0.2524	0.6146	0.333
Mof_H 	H 	0.3641	0.1487	0.6059	-0.074
Mof_C 	C 	0.38133	0.6752	0.74552	0.384
Mof_C 	C 	0.42332	0.5987	0.77181	-0.391
Mof_H 	H 	0.435	0.504	0.756	0.169
Mof_C 	C 	0.44867	0.6652	0.82304	0.266
Mof_H 	H 	0.4771	0.6128	0.8416	-0.053
Mof_C 	C 	0.43209	0.8078	0.84653	-0.345
Mof_C 	C 	0.38906	0.8803	0.81799	0.281
Mof_H 	H 	0.3769	0.9747	0.8334	-0.067
Mof_C 	C 	0.36419	0.8177	0.7682	-0.395
Mof_H 	H 	0.3358	0.8702	0.7496	0.175
Mof_C 	C 	0.45863	0.8751	0.9018	0.559
Mof_C 	C 	0.63488	0.293	0.49049	0.105
Mof_H 	H 	0.6397	0.1983	0.4697	-0.043
Mof_C 	C 	0.67069	0.4159	0.4946	-0.132
Mof_H 	H 	0.6989	0.4032	0.4772	0.077
Mof_C 	C 	0.6636	0.5593	0.52531	0.007
Mof_C 	C 	0.62132	0.569	0.55093	-0.142
Mof_H 	H 	0.6153	0.6615	0.5722	0.069
Mof_C 	C 	0.58811	0.4389	0.54437	0.116
Mof_H 	H 	0.5598	0.4468	0.5618	-0.043
Mof_C 	C 	0.69879	0.7008	0.52727	0.23
Mof_C 	C 	0.69	0.8507	0.5611	-0.727
Mof_H 	H 	0.703	0.8327	0.601	0.244
Mof_H 	H 	0.655	0.8723	0.5571	0.24
Mof_H 	H 	0.7065	0.9435	0.5472	0.254
Mof_Zn	Zn	0.53961	0.1257	0.50188	-1.104
Mof_Cd	Cd	0.95992	0.6247	0.99886	3.163
Mof_O 	O 	0.01436	0.7334	0.9584	-0.674
Mof_N 	N 	0.90578	0.8039	0.98529	-0.355
Mof_C 	C 	0.05423	0.6846	0.94448	0.586
Mof_O 	O 	0.07453	0.5487	0.95769	-0.67
Mof_N 	N 	0.76628	0.1832	0.00166	-0.134
Mof_C 	C 	0.08021	0.8001	0.90838	-0.376
Mof_O 	O 	0.14732	0.1114	0.80375	-0.366
Mof_C 	C 	0.06233	0.9565	0.89725	0.324
Mof_H 	H 	0.0351	0.993	0.9132	-0.079
Mof_O 	O 	0.06148	0.4945	0.57643	-0.669
Mof_C 	C 	0.08456	0.0598	0.86245	-0.441
Mof_H 	H 	0.0727	0.1667	0.8555	0.187
Mof_O 	O 	0.0014	0.3067	0.57638	-0.653
Mof_C 	C 	0.12435	0.0055	0.83792	0.427
Mof_C 	C 	0.14339	0.8545	0.8505	-0.454
Mof_H 	H 	0.1712	0.8199	0.8353	0.195
Mof_C 	C 	0.12218	0.7524	0.8854	0.332
Mof_H 	H 	0.1359	0.6487	0.8941	-0.073
Mof_C 	C 	0.11867	0.1752	0.75448	0.384
Mof_C 	C 	0.07668	0.0987	0.72819	-0.391
Mof_H 	H 	0.065	0.004	0.744	0.169
Mof_C 	C 	0.05133	0.1652	0.67696	0.266
Mof_H 	H 	0.0229	0.1128	0.6584	-0.053
Mof_C 	C 	0.06791	0.3078	0.65347	-0.346
Mof_C 	C 	0.11094	0.3803	0.68201	0.281
Mof_H 	H 	0.1231	0.4747	0.6666	-0.067
Mof_C 	C 	0.13581	0.3177	0.7318	-0.395
Mof_H 	H 	0.1642	0.3702	0.7504	0.175
Mof_C 	C 	0.04137	0.3751	0.5982	0.559
Mof_C 	C 	0.86512	0.793	0.00951	0.107
Mof_H 	H 	0.8603	0.6983	0.0303	-0.043
Mof_C 	C 	0.82931	0.9159	0.0054	-0.131
Mof_H 	H 	0.8011	0.9032	0.0228	0.077
Mof_C 	C 	0.8364	0.0593	0.97469	0.007
Mof_C 	C 	0.87868	0.069	0.94907	-0.144
Mof_H 	H 	0.8847	0.1615	0.9278	0.07
Mof_C 	C 	0.91189	0.9389	0.95563	0.117
Mof_H 	H 	0.9402	0.9468	0.9382	-0.044
Mof_C 	C 	0.80121	0.2008	0.97273	0.227
Mof_C 	C 	0.81	0.3507	0.9389	-0.724
Mof_H 	H 	0.797	0.3327	0.899	0.243
Mof_H 	H 	0.845	0.3723	0.9429	0.239
Mof_H 	H 	0.7935	0.4435	0.9528	0.253
Mof_Zn	Zn	0.96039	0.6257	0.99812	-1.104
Mof_Cd	Cd	0.45992	0.1247	0.99886	3.162
Mof_O 	O 	0.51436	0.2334	0.9584	-0.676
Mof_N 	N 	0.40578	0.3039	0.98529	-0.354
Mof_C 	C 	0.55423	0.1846	0.94448	0.586
Mof_O 	O 	0.57453	0.0487	0.95769	-0.671
Mof_N 	N 	0.26628	0.6832	0.00166	-0.138
Mof_C 	C 	0.58021	0.3001	0.90838	-0.377
Mof_O 	O 	0.64732	0.6114	0.80375	-0.366
Mof_C 	C 	0.56233	0.4565	0.89725	0.323
Mof_H 	H 	0.5351	0.493	0.9132	-0.08
Mof_O 	O 	0.56148	0.9945	0.57643	-0.669
Mof_C 	C 	0.58456	0.5598	0.86245	-0.44
Mof_H 	H 	0.5727	0.6667	0.8555	0.187
Mof_O 	O 	0.5014	0.8067	0.57638	-0.653
Mof_C 	C 	0.62435	0.5055	0.83792	0.429
Mof_C 	C 	0.64339	0.3545	0.8505	-0.457
Mof_H 	H 	0.6712	0.3199	0.8353	0.196
Mof_C 	C 	0.62218	0.2524	0.8854	0.333
Mof_H 	H 	0.6359	0.1487	0.8941	-0.074
Mof_C 	C 	0.61867	0.6752	0.75448	0.384
Mof_C 	C 	0.57668	0.5987	0.72819	-0.391
Mof_H 	H 	0.565	0.504	0.744	0.169
Mof_C 	C 	0.55133	0.6652	0.67696	0.266
Mof_H 	H 	0.5229	0.6128	0.6584	-0.053
Mof_C 	C 	0.56791	0.8078	0.65347	-0.346
Mof_C 	C 	0.61094	0.8803	0.68201	0.281
Mof_H 	H 	0.6231	0.9747	0.6666	-0.067
Mof_C 	C 	0.63581	0.8177	0.7318	-0.395
Mof_H 	H 	0.6642	0.8702	0.7504	0.175
Mof_C 	C 	0.54137	0.8751	0.5982	0.559
Mof_C 	C 	0.36512	0.293	0.00951	0.106
Mof_H 	H 	0.3603	0.1983	0.0303	-0.043
Mof_C 	C 	0.32931	0.4159	0.0054	-0.132
Mof_H 	H 	0.3011	0.4032	0.0228	0.077
Mof_C 	C 	0.3364	0.5593	0.97469	0.008
Mof_C 	C 	0.37868	0.569	0.94907	-0.142
Mof_H 	H 	0.3847	0.6615	0.9278	0.069
Mof_C 	C 	0.41189	0.4389	0.95563	0.116
Mof_H 	H 	0.4402	0.4468	0.9382	-0.043
Mof_C 	C 	0.30121	0.7008	0.97273	0.232
Mof_C 	C 	0.31	0.8507	0.9389	-0.73
Mof_H 	H 	0.297	0.8327	0.899	0.245
Mof_H 	H 	0.345	0.8723	0.9429	0.242
Mof_H 	H 	0.2935	0.9435	0.9528	0.256
Mof_Zn	Zn	0.46039	0.1257	0.99812	-1.104
Mof_Cd	Cd	0.95992	0.3753	0.49886	3.162
Mof_O 	O 	0.01436	0.2666	0.4584	-0.676
Mof_N 	N 	0.90578	0.1961	0.48529	-0.354
Mof_C 	C 	0.05423	0.3154	0.44448	0.586
Mof_O 	O 	0.07453	0.4513	0.45769	-0.671
Mof_N 	N 	0.76628	0.8168	0.50166	-0.136
Mof_C 	C 	0.08021	0.1999	0.40838	-0.376
Mof_O 	O 	0.14732	0.8886	0.30375	-0.366
Mof_C 	C 	0.06233	0.0435	0.39725	0.324
Mof_H 	H 	0.0351	0.007	0.4132	-0.08
Mof_O 	O 	0.06148	0.5055	0.07643	-0.67
Mof_C 	C 	0.08456	0.9402	0.36245	-0.441
Mof_H 	H 	0.0727	0.8333	0.3555	0.187
Mof_O 	O 	0.0014	0.6933	0.07638	-0.654
Mof_C 	C 	0.12435	0.9945	0.33792	0.427
Mof_C 	C 	0.14339	0.1455	0.3505	-0.455
Mof_H 	H 	0.1712	0.1801	0.3353	0.195
Mof_C 	C 	0.12218	0.2476	0.3854	0.333
Mof_H 	H 	0.1359	0.3513	0.3941	-0.074
Mof_C 	C 	0.11867	0.8248	0.25448	0.384
Mof_C 	C 	0.07668	0.9013	0.22819	-0.391
Mof_H 	H 	0.065	0.996	0.244	0.168
Mof_C 	C 	0.05133	0.8348	0.17696	0.266
Mof_H 	H 	0.0229	0.8872	0.1584	-0.054
Mof_C 	C 	0.06791	0.6922	0.15347	-0.346
Mof_C 	C 	0.11094	0.6197	0.18201	0.282
Mof_H 	H 	0.1231	0.5253	0.1666	-0.067
Mof_C 	C 	0.13581	0.6823	0.2318	-0.395
Mof_H 	H 	0.1642	0.6298	0.2504	0.175
Mof_C 	C 	0.04137	0.6249	0.0982	0.559
Mof_C 	C 	0.86512	0.207	0.50951	0.106
Mof_H 	H 	0.8603	0.3017	0.5303	-0.043
Mof_C 	C 	0.82931	0.0841	0.5054	-0.133
Mof_H 	H 	0.8011	0.0968	0.5228	0.077
Mof_C 	C 	0.8364	0.9407	0.47469	0.008
Mof_C 	C 	0.87868	0.931	0.44907	-0.142
Mof_H 	H 	0.8847	0.8385	0.4278	0.069
Mof_C 	C 	0.91189	0.0611	0.45563	0.116
Mof_H 	H 	0.9402	0.0532	0.4382	-0.043
Mof_C 	C 	0.80121	0.7992	0.47273	0.229
Mof_C 	C 	0.81	0.6493	0.4389	-0.726
Mof_H 	H 	0.797	0.6673	0.399	0.244
Mof_H 	H 	0.845	0.6277	0.4429	0.24
Mof_H 	H 	0.7935	0.5565	0.4528	0.254
Mof_Zn	Zn	0.96039	0.3743	0.49812	-1.104
Mof_Cd	Cd	0.45992	0.8753	0.49886	3.162
Mof_O 	O 	0.51436	0.7666	0.4584	-0.676
Mof_N 	N 	0.40578	0.6961	0.48529	-0.354
Mof_C 	C 	0.55423	0.8154	0.44448	0.586
Mof_O 	O 	0.57453	0.9513	0.45769	-0.671
Mof_N 	N 	0.26628	0.3168	0.50166	-0.136
Mof_C 	C 	0.58021	0.6999	0.40838	-0.376
Mof_O 	O 	0.64732	0.3886	0.30375	-0.366
Mof_C 	C 	0.56233	0.5435	0.39725	0.323
Mof_H 	H 	0.5351	0.507	0.4132	-0.08
Mof_O 	O 	0.56148	0.0055	0.07643	-0.669
Mof_C 	C 	0.58456	0.4402	0.36245	-0.44
Mof_H 	H 	0.5727	0.3333	0.3555	0.187
Mof_O 	O 	0.5014	0.1933	0.07638	-0.653
Mof_C 	C 	0.62435	0.4945	0.33792	0.429
Mof_C 	C 	0.64339	0.6455	0.3505	-0.457
Mof_H 	H 	0.6712	0.6801	0.3353	0.196
Mof_C 	C 	0.62218	0.7476	0.3854	0.333
Mof_H 	H 	0.6359	0.8513	0.3941	-0.074
Mof_C 	C 	0.61867	0.3248	0.25448	0.384
Mof_C 	C 	0.57668	0.4013	0.22819	-0.391
Mof_H 	H 	0.565	0.496	0.244	0.169
Mof_C 	C 	0.55133	0.3348	0.17696	0.266
Mof_H 	H 	0.5229	0.3872	0.1584	-0.053
Mof_C 	C 	0.56791	0.1922	0.15347	-0.345
Mof_C 	C 	0.61094	0.1197	0.18201	0.281
Mof_H 	H 	0.6231	0.0253	0.1666	-0.067
Mof_C 	C 	0.63581	0.1823	0.2318	-0.395
Mof_H 	H 	0.6642	0.1298	0.2504	0.175
Mof_C 	C 	0.54137	0.1249	0.0982	0.559
Mof_C 	C 	0.36512	0.707	0.50951	0.105
Mof_H 	H 	0.3603	0.8017	0.5303	-0.043
Mof_C 	C 	0.32931	0.5841	0.5054	-0.132
Mof_H 	H 	0.3011	0.5968	0.5228	0.077
Mof_C 	C 	0.3364	0.4407	0.47469	0.007
Mof_C 	C 	0.37868	0.431	0.44907	-0.142
Mof_H 	H 	0.3847	0.3385	0.4278	0.069
Mof_C 	C 	0.41189	0.5611	0.45563	0.116
Mof_H 	H 	0.4402	0.5532	0.4382	-0.043
Mof_C 	C 	0.30121	0.2992	0.47273	0.23
Mof_C 	C 	0.31	0.1493	0.4389	-0.727
Mof_H 	H 	0.297	0.1673	0.399	0.244
Mof_H 	H 	0.345	0.1277	0.4429	0.24
Mof_H 	H 	0.2935	0.0565	0.4528	0.254
Mof_Zn	Zn	0.46039	0.8743	0.49812	-1.104
Mof_Cd	Cd	0.04008	0.3753	0.00114	3.163
Mof_O 	O 	0.98564	0.2666	0.0416	-0.674
Mof_N 	N 	0.09422	0.1961	0.01471	-0.355
Mof_C 	C 	0.94577	0.3154	0.05552	0.586
Mof_O 	O 	0.92547	0.4513	0.04231	-0.67
Mof_N 	N 	0.23372	0.8168	0.99834	-0.134
Mof_C 	C 	0.91979	0.1999	0.09162	-0.376
Mof_O 	O 	0.85268	0.8886	0.19625	-0.366
Mof_C 	C 	0.93767	0.0435	0.10275	0.324
Mof_H 	H 	0.9649	0.007	0.0868	-0.079
Mof_O 	O 	0.93852	0.5055	0.42357	-0.669
Mof_C 	C 	0.91544	0.9402	0.13755	-0.441
Mof_H 	H 	0.9273	0.8333	0.1445	0.187
Mof_O 	O 	0.9986	0.6933	0.42362	-0.653
Mof_C 	C 	0.87565	0.9945	0.16208	0.427
Mof_C 	C 	0.85661	0.1455	0.1495	-0.454
Mof_H 	H 	0.8288	0.1801	0.1647	0.195
Mof_C 	C 	0.87782	0.2476	0.1146	0.332
Mof_H 	H 	0.8641	0.3513	0.1059	-0.073
Mof_C 	C 	0.88133	0.8248	0.24552	0.384
Mof_C 	C 	0.92332	0.9013	0.27181	-0.391
Mof_H 	H 	0.935	0.996	0.256	0.169
Mof_C 	C 	0.94867	0.8348	0.32304	0.266
Mof_H 	H 	0.9771	0.8872	0.3416	-0.053
Mof_C 	C 	0.93209	0.6922	0.34653	-0.346
Mof_C 	C 	0.88906	0.6197	0.31799	0.281
Mof_H 	H 	0.8769	0.5253	0.3334	-0.067
Mof_C 	C 	0.86419	0.6823	0.2682	-0.395
Mof_H 	H 	0.8358	0.6298	0.2496	0.175
Mof_C 	C 	0.95863	0.6249	0.4018	0.559
Mof_C 	C 	0.13488	0.207	0.99049	0.107
Mof_H 	H 	0.1397	0.3017	0.9697	-0.043
Mof_C 	C 	0.17069	0.0841	0.9946	-0.131
Mof_H 	H 	0.1989	0.0968	0.9772	0.077
Mof_C 	C 	0.1636	0.9407	0.02531	0.007
Mof_C 	C 	0.12132	0.931	0.05093	-0.144
Mof_H 	H 	0.1153	0.8385	0.0722	0.07
Mof_C 	C 	0.08811	0.0611	0.04437	0.117
Mof_H 	H 	0.0598	0.0532	0.0618	-0.044
Mof_C 	C 	0.19879	0.7992	0.02727	0.227
Mof_C 	C 	0.19	0.6493	0.0611	-0.724
Mof_H 	H 	0.203	0.6673	0.101	0.243
Mof_H 	H 	0.155	0.6277	0.0571	0.239
Mof_H 	H 	0.2065	0.5565	0.0472	0.253
Mof_Zn	Zn	0.03961	0.3743	0.00188	-1.104
Mof_Cd	Cd	0.54008	0.8753	0.00114	3.162
Mof_O 	O 	0.48564	0.7666	0.0416	-0.676
Mof_N 	N 	0.59422	0.6961	0.01471	-0.354
Mof_C 	C 	0.44577	0.8154	0.05552	0.586
Mof_O 	O 	0.42547	0.9513	0.04231	-0.671
Mof_N 	N 	0.73372	0.3168	0.99834	-0.138
Mof_C 	C 	0.41979	0.6999	0.09162	-0.377
Mof_O 	O 	0.35268	0.3886	0.19625	-0.366
Mof_C 	C 	0.43767	0.5435	0.10275	0.323
Mof_H 	H 	0.4649	0.507	0.0868	-0.08
Mof_O 	O 	0.43852	0.0055	0.42357	-0.669
Mof_C 	C 	0.41544	0.4402	0.13755	-0.44
Mof_H 	H 	0.4273	0.3333	0.1445	0.187
Mof_O 	O 	0.4986	0.1933	0.42362	-0.653
Mof_C 	C 	0.37565	0.4945	0.16208	0.429
Mof_C 	C 	0.35661	0.6455	0.1495	-0.457
Mof_H 	H 	0.3288	0.6801	0.1647	0.196
Mof_C 	C 	0.37782	0.7476	0.1146	0.333
Mof_H 	H 	0.3641	0.8513	0.1059	-0.074
Mof_C 	C 	0.38133	0.3248	0.24552	0.384
Mof_C 	C 	0.42332	0.4013	0.27181	-0.391
Mof_H 	H 	0.435	0.496	0.256	0.169
Mof_C 	C 	0.44867	0.3348	0.32304	0.266
Mof_H 	H 	0.4771	0.3872	0.3416	-0.053
Mof_C 	C 	0.43209	0.1922	0.34653	-0.346
Mof_C 	C 	0.38906	0.1197	0.31799	0.281
Mof_H 	H 	0.3769	0.0253	0.3334	-0.067
Mof_C 	C 	0.36419	0.1823	0.2682	-0.395
Mof_H 	H 	0.3358	0.1298	0.2496	0.175
Mof_C 	C 	0.45863	0.1249	0.4018	0.559
Mof_C 	C 	0.63488	0.707	0.99049	0.106
Mof_H 	H 	0.6397	0.8017	0.9697	-0.043
Mof_C 	C 	0.67069	0.5841	0.9946	-0.132
Mof_H 	H 	0.6989	0.5968	0.9772	0.077
Mof_C 	C 	0.6636	0.4407	0.02531	0.008
Mof_C 	C 	0.62132	0.431	0.05093	-0.142
Mof_H 	H 	0.6153	0.3385	0.0722	0.069
Mof_C 	C 	0.58811	0.5611	0.04437	0.116
Mof_H 	H 	0.5598	0.5532	0.0618	-0.043
Mof_C 	C 	0.69879	0.2992	0.02727	0.232
Mof_C 	C 	0.69	0.1493	0.0611	-0.73
Mof_H 	H 	0.703	0.1673	0.101	0.245
Mof_H 	H 	0.655	0.1277	0.0571	0.242
Mof_H 	H 	0.7065	0.0565	0.0472	0.256
Mof_Zn	Zn	0.53961	0.8743	0.00188	-1.104
_end
