# CIF file generated by openbabel 3.1.0, see https://openbabel.org
data_I
_chemical_name_common 'image0'
_cell_length_a 15.7742
_cell_length_b 19.9751
_cell_length_c 16.2065
_cell_angle_alpha 90
_cell_angle_beta 106.398
_cell_angle_gamma 90
_space_group_name_H-M_alt 'P 1'
_space_group_name_Hall 'P 1'
loop_
    _symmetry_equiv_pos_as_xyz
    x,y,z
loop_
    _atom_site_label
    _atom_site_type_symbol
    _atom_site_fract_x
    _atom_site_fract_y
    _atom_site_fract_z
    _atom_site_occupancy
    N1       N        0.53330    0.97650    0.56630    1.000
    O1       O        0.57200    0.03020    0.57320    1.000
    O2       O        0.50180    0.95350    0.49350    1.000
    O3       O        0.53115    0.94653    0.63271    1.000
    N2       N        0.36220    0.95374    0.68290    1.000
    C1       C        0.45370    0.09250    0.68250    1.000
    H1       H        0.42040    0.06830    0.63360    1.000
    C2       C        0.45090    0.16160    0.67920    1.000
    H2       H        0.41610    0.18380    0.62940    1.000
    C3       C        0.42310    0.30830    0.71250    1.000
    H3       H        0.36990    0.28500    0.68600    1.000
    C4       C        0.42300    0.37770    0.71320    1.000
    H4       H        0.36940    0.40100    0.68820    1.000
    C5       C        0.44240    0.52420    0.68380    1.000
    H5       H        0.40240    0.50090    0.63790    1.000
    C6       C        0.44240    0.59360    0.68390    1.000
    H6       H        0.40260    0.61720    0.63810    1.000
    C7       C        0.48530    0.80930    0.67650    1.000
    H7       H        0.47500    0.83280    0.62360    1.000
    C8       C        0.48450    0.74020    0.67420    1.000
    H8       H        0.47330    0.71760    0.62070    1.000
    C9       C        0.30330    0.97500    0.72250    1.000
    H9       H        0.32310    0.98280    0.78270    1.000
    C10      C        0.21560    0.98630    0.68080    1.000
    H10      H        0.17680    0.00220    0.71190    1.000
    C11      C        0.18400    0.97430    0.59330    1.000
    C12      C        0.24340    0.95160    0.55230    1.000
    H11      H        0.22460    0.94220    0.49240    1.000
    C13      C        0.33090    0.94220    0.59850    1.000
    H12      H        0.37090    0.92680    0.56860    1.000
    C14      C        0.02860    0.93430    0.52680    1.000
    C15      C        0.06230    0.05400    0.51950    1.000
    C16      C        0.12180    0.10840    0.53470    1.000
    H13      H        0.18250    0.10070    0.56300    1.000
    C17      C        0.09400    0.17150    0.50970    1.000
    H14      H        0.13470    0.20760    0.52250    1.000
    C18      C        0.00460    0.18350    0.46470    1.000
    H15      H        0.98560    0.22780    0.44740    1.000
    C19      C        0.05390    0.86760    0.55390    1.000
    H16      H        0.11330    0.85880    0.58580    1.000
    C20      C        0.08870    0.98770    0.54550    1.000
    N3       N        0.46670    0.97650    0.93370    1.000
    O4       O        0.42800    0.03020    0.92680    1.000
    O5       O        0.49820    0.95350    0.00650    1.000
    O6       O        0.46885    0.94653    0.86729    1.000
    N4       N        0.63780    0.95374    0.81710    1.000
    C21      C        0.54630    0.09250    0.81750    1.000
    H17      H        0.57960    0.06830    0.86640    1.000
    C22      C        0.54910    0.16160    0.82080    1.000
    H18      H        0.58390    0.18380    0.87060    1.000
    C23      C        0.57690    0.30830    0.78750    1.000
    H19      H        0.63010    0.28500    0.81400    1.000
    C24      C        0.57700    0.37770    0.78680    1.000
    H20      H        0.63060    0.40100    0.81180    1.000
    C25      C        0.55760    0.52420    0.81620    1.000
    H21      H        0.59760    0.50090    0.86210    1.000
    C26      C        0.55760    0.59360    0.81610    1.000
    H22      H        0.59740    0.61720    0.86190    1.000
    C27      C        0.51470    0.80930    0.82350    1.000
    H23      H        0.52500    0.83280    0.87640    1.000
    C28      C        0.51550    0.74020    0.82580    1.000
    H24      H        0.52670    0.71760    0.87930    1.000
    C29      C        0.69670    0.97500    0.77750    1.000
    H25      H        0.67690    0.98280    0.71730    1.000
    C30      C        0.78440    0.98630    0.81920    1.000
    H26      H        0.82320    0.00220    0.78810    1.000
    C31      C        0.81600    0.97430    0.90670    1.000
    C32      C        0.75660    0.95160    0.94770    1.000
    H27      H        0.77540    0.94220    0.00760    1.000
    C33      C        0.66910    0.94220    0.90150    1.000
    H28      H        0.62910    0.92680    0.93140    1.000
    C34      C        0.97140    0.93430    0.97320    1.000
    C35      C        0.93770    0.05400    0.98050    1.000
    C36      C        0.87820    0.10840    0.96530    1.000
    H29      H        0.81750    0.10070    0.93700    1.000
    C37      C        0.90600    0.17150    0.99030    1.000
    H30      H        0.86530    0.20760    0.97750    1.000
    C38      C        0.99540    0.18350    0.03530    1.000
    H31      H        0.01440    0.22780    0.05260    1.000
    C39      C        0.94610    0.86760    0.94610    1.000
    H32      H        0.88670    0.85880    0.91420    1.000
    C40      C        0.91130    0.98770    0.95450    1.000
    N5       N        0.46670    0.02350    0.43370    1.000
    O7       O        0.42800    0.96980    0.42680    1.000
    O8       O        0.49820    0.04650    0.50650    1.000
    O9       O        0.46885    0.05347    0.36729    1.000
    N6       N        0.63780    0.04626    0.31710    1.000
    C41      C        0.54630    0.90750    0.31750    1.000
    H33      H        0.57960    0.93170    0.36640    1.000
    C42      C        0.54910    0.83840    0.32080    1.000
    H34      H        0.58390    0.81620    0.37060    1.000
    C43      C        0.57690    0.69170    0.28750    1.000
    H35      H        0.63010    0.71500    0.31400    1.000
    C44      C        0.57700    0.62230    0.28680    1.000
    H36      H        0.63060    0.59900    0.31180    1.000
    C45      C        0.55760    0.47580    0.31620    1.000
    H37      H        0.59760    0.49910    0.36210    1.000
    C46      C        0.55760    0.40640    0.31610    1.000
    H38      H        0.59740    0.38280    0.36190    1.000
    C47      C        0.51470    0.19070    0.32350    1.000
    H39      H        0.52500    0.16720    0.37640    1.000
    C48      C        0.51550    0.25980    0.32580    1.000
    H40      H        0.52670    0.28240    0.37930    1.000
    C49      C        0.69670    0.02500    0.27750    1.000
    H41      H        0.67690    0.01720    0.21730    1.000
    C50      C        0.78440    0.01370    0.31920    1.000
    H42      H        0.82320    0.99780    0.28810    1.000
    C51      C        0.81600    0.02570    0.40670    1.000
    C52      C        0.75660    0.04840    0.44770    1.000
    H43      H        0.77540    0.05780    0.50760    1.000
    C53      C        0.66910    0.05780    0.40150    1.000
    H44      H        0.62910    0.07320    0.43140    1.000
    C54      C        0.97140    0.06570    0.47320    1.000
    C55      C        0.93770    0.94600    0.48050    1.000
    C56      C        0.87820    0.89160    0.46530    1.000
    H45      H        0.81750    0.89930    0.43700    1.000
    C57      C        0.90600    0.82850    0.49030    1.000
    H46      H        0.86530    0.79240    0.47750    1.000
    C58      C        0.99540    0.81650    0.53530    1.000
    H47      H        0.01440    0.77220    0.55260    1.000
    C59      C        0.94610    0.13240    0.44610    1.000
    H48      H        0.88670    0.14120    0.41420    1.000
    C60      C        0.91130    0.01230    0.45450    1.000
    N7       N        0.53330    0.02350    0.06630    1.000
    O10      O        0.57200    0.96980    0.07320    1.000
    O11      O        0.50180    0.04650    0.99350    1.000
    O12      O        0.53115    0.05347    0.13271    1.000
    N8       N        0.36220    0.04626    0.18290    1.000
    C61      C        0.45370    0.90750    0.18250    1.000
    H49      H        0.42040    0.93170    0.13360    1.000
    C62      C        0.45090    0.83840    0.17920    1.000
    H50      H        0.41610    0.81620    0.12940    1.000
    C63      C        0.42310    0.69170    0.21250    1.000
    H51      H        0.36990    0.71500    0.18600    1.000
    C64      C        0.42300    0.62230    0.21320    1.000
    H52      H        0.36940    0.59900    0.18820    1.000
    C65      C        0.44240    0.47580    0.18380    1.000
    H53      H        0.40240    0.49910    0.13790    1.000
    C66      C        0.44240    0.40640    0.18390    1.000
    H54      H        0.40260    0.38280    0.13810    1.000
    C67      C        0.48530    0.19070    0.17650    1.000
    H55      H        0.47500    0.16720    0.12360    1.000
    C68      C        0.48450    0.25980    0.17420    1.000
    H56      H        0.47330    0.28240    0.12070    1.000
    C69      C        0.30330    0.02500    0.22250    1.000
    H57      H        0.32310    0.01720    0.28270    1.000
    C70      C        0.21560    0.01370    0.18080    1.000
    H58      H        0.17680    0.99780    0.21190    1.000
    C71      C        0.18400    0.02570    0.09330    1.000
    C72      C        0.24340    0.04840    0.05230    1.000
    H59      H        0.22460    0.05780    0.99240    1.000
    C73      C        0.33090    0.05780    0.09850    1.000
    H60      H        0.37090    0.07320    0.06860    1.000
    C74      C        0.02860    0.06570    0.02680    1.000
    C75      C        0.06230    0.94600    0.01950    1.000
    C76      C        0.12180    0.89160    0.03470    1.000
    H61      H        0.18250    0.89930    0.06300    1.000
    C77      C        0.09400    0.82850    0.00970    1.000
    H62      H        0.13470    0.79240    0.02250    1.000
    C78      C        0.00460    0.81650    0.96470    1.000
    H63      H        0.98560    0.77220    0.94740    1.000
    C79      C        0.05390    0.13240    0.05390    1.000
    H64      H        0.11330    0.14120    0.08580    1.000
    C80      C        0.08870    0.01230    0.04550    1.000
    Ni1      Ni       0.50000    0.95153    0.75000    1.000
    N9       N        0.50000    0.05790    0.75000    1.000
    C81      C        0.50000    0.19850    0.75000    1.000
    C82      C        0.50000    0.27210    0.75000    1.000
    C83      C        0.50000    0.41370    0.75000    1.000
    C84      C        0.50000    0.48790    0.75000    1.000
    C85      C        0.50000    0.62920    0.75000    1.000
    N10      N        0.50000    0.84550    0.75000    1.000
    C86      C        0.50000    0.70360    0.75000    1.000
    Ni2      Ni       0.50000    0.04847    0.25000    1.000
    N11      N        0.50000    0.94210    0.25000    1.000
    C87      C        0.50000    0.80150    0.25000    1.000
    C88      C        0.50000    0.72790    0.25000    1.000
    C89      C        0.50000    0.58630    0.25000    1.000
    C90      C        0.50000    0.51210    0.25000    1.000
    C91      C        0.50000    0.37080    0.25000    1.000
    N12      N        0.50000    0.15450    0.25000    1.000
    C92      C        0.50000    0.29640    0.25000    1.000
    N13      N        0.03330    0.47650    0.56630    1.000
    O13      O        0.07200    0.53020    0.57320    1.000
    O14      O        0.00180    0.45350    0.49350    1.000
    O15      O        0.03115    0.44653    0.63271    1.000
    N14      N        0.86220    0.45374    0.68290    1.000
    C93      C        0.95370    0.59250    0.68250    1.000
    H65      H        0.92040    0.56830    0.63360    1.000
    C94      C        0.95090    0.66160    0.67920    1.000
    H66      H        0.91610    0.68380    0.62940    1.000
    C95      C        0.92310    0.80830    0.71250    1.000
    H67      H        0.86990    0.78500    0.68600    1.000
    C96      C        0.92300    0.87770    0.71320    1.000
    H68      H        0.86940    0.90100    0.68820    1.000
    C97      C        0.94240    0.02420    0.68380    1.000
    H69      H        0.90240    0.00090    0.63790    1.000
    C98      C        0.94240    0.09360    0.68390    1.000
    H70      H        0.90260    0.11720    0.63810    1.000
    C99      C        0.98530    0.30930    0.67650    1.000
    H71      H        0.97500    0.33280    0.62360    1.000
    C100     C        0.98450    0.24020    0.67420    1.000
    H72      H        0.97330    0.21760    0.62070    1.000
    C101     C        0.80330    0.47500    0.72250    1.000
    H73      H        0.82310    0.48280    0.78270    1.000
    C102     C        0.71560    0.48630    0.68080    1.000
    H74      H        0.67680    0.50220    0.71190    1.000
    C103     C        0.68400    0.47430    0.59330    1.000
    C104     C        0.74340    0.45160    0.55230    1.000
    H75      H        0.72460    0.44220    0.49240    1.000
    C105     C        0.83090    0.44220    0.59850    1.000
    H76      H        0.87090    0.42680    0.56860    1.000
    C106     C        0.52860    0.43430    0.52680    1.000
    C107     C        0.56230    0.55400    0.51950    1.000
    C108     C        0.62180    0.60840    0.53470    1.000
    H77      H        0.68250    0.60070    0.56300    1.000
    C109     C        0.59400    0.67150    0.50970    1.000
    H78      H        0.63470    0.70760    0.52250    1.000
    C110     C        0.50460    0.68350    0.46470    1.000
    H79      H        0.48560    0.72780    0.44740    1.000
    C111     C        0.55390    0.36760    0.55390    1.000
    H80      H        0.61330    0.35880    0.58580    1.000
    C112     C        0.58870    0.48770    0.54550    1.000
    N15      N        0.96670    0.47650    0.93370    1.000
    O16      O        0.92800    0.53020    0.92680    1.000
    O17      O        0.99820    0.45350    0.00650    1.000
    O18      O        0.96885    0.44653    0.86729    1.000
    N16      N        0.13780    0.45374    0.81710    1.000
    C113     C        0.04630    0.59250    0.81750    1.000
    H81      H        0.07960    0.56830    0.86640    1.000
    C114     C        0.04910    0.66160    0.82080    1.000
    H82      H        0.08390    0.68380    0.87060    1.000
    C115     C        0.07690    0.80830    0.78750    1.000
    H83      H        0.13010    0.78500    0.81400    1.000
    C116     C        0.07700    0.87770    0.78680    1.000
    H84      H        0.13060    0.90100    0.81180    1.000
    C117     C        0.05760    0.02420    0.81620    1.000
    H85      H        0.09760    0.00090    0.86210    1.000
    C118     C        0.05760    0.09360    0.81610    1.000
    H86      H        0.09740    0.11720    0.86190    1.000
    C119     C        0.01470    0.30930    0.82350    1.000
    H87      H        0.02500    0.33280    0.87640    1.000
    C120     C        0.01550    0.24020    0.82580    1.000
    H88      H        0.02670    0.21760    0.87930    1.000
    C121     C        0.19670    0.47500    0.77750    1.000
    H89      H        0.17690    0.48280    0.71730    1.000
    C122     C        0.28440    0.48630    0.81920    1.000
    H90      H        0.32320    0.50220    0.78810    1.000
    C123     C        0.31600    0.47430    0.90670    1.000
    C124     C        0.25660    0.45160    0.94770    1.000
    H91      H        0.27540    0.44220    0.00760    1.000
    C125     C        0.16910    0.44220    0.90150    1.000
    H92      H        0.12910    0.42680    0.93140    1.000
    C126     C        0.47140    0.43430    0.97320    1.000
    C127     C        0.43770    0.55400    0.98050    1.000
    C128     C        0.37820    0.60840    0.96530    1.000
    H93      H        0.31750    0.60070    0.93700    1.000
    C129     C        0.40600    0.67150    0.99030    1.000
    H94      H        0.36530    0.70760    0.97750    1.000
    C130     C        0.49540    0.68350    0.03530    1.000
    H95      H        0.51440    0.72780    0.05260    1.000
    C131     C        0.44610    0.36760    0.94610    1.000
    H96      H        0.38670    0.35880    0.91420    1.000
    C132     C        0.41130    0.48770    0.95450    1.000
    N17      N        0.96670    0.52350    0.43370    1.000
    O19      O        0.92800    0.46980    0.42680    1.000
    O20      O        0.99820    0.54650    0.50650    1.000
    O21      O        0.96885    0.55347    0.36729    1.000
    N18      N        0.13780    0.54626    0.31710    1.000
    C133     C        0.04630    0.40750    0.31750    1.000
    H97      H        0.07960    0.43170    0.36640    1.000
    C134     C        0.04910    0.33840    0.32080    1.000
    H98      H        0.08390    0.31620    0.37060    1.000
    C135     C        0.07690    0.19170    0.28750    1.000
    H99      H        0.13010    0.21500    0.31400    1.000
    C136     C        0.07700    0.12230    0.28680    1.000
    H100     H        0.13060    0.09900    0.31180    1.000
    C137     C        0.05760    0.97580    0.31620    1.000
    H101     H        0.09760    0.99910    0.36210    1.000
    C138     C        0.05760    0.90640    0.31610    1.000
    H102     H        0.09740    0.88280    0.36190    1.000
    C139     C        0.01470    0.69070    0.32350    1.000
    H103     H        0.02500    0.66720    0.37640    1.000
    C140     C        0.01550    0.75980    0.32580    1.000
    H104     H        0.02670    0.78240    0.37930    1.000
    C141     C        0.19670    0.52500    0.27750    1.000
    H105     H        0.17690    0.51720    0.21730    1.000
    C142     C        0.28440    0.51370    0.31920    1.000
    H106     H        0.32320    0.49780    0.28810    1.000
    C143     C        0.31600    0.52570    0.40670    1.000
    C144     C        0.25660    0.54840    0.44770    1.000
    H107     H        0.27540    0.55780    0.50760    1.000
    C145     C        0.16910    0.55780    0.40150    1.000
    H108     H        0.12910    0.57320    0.43140    1.000
    C146     C        0.47140    0.56570    0.47320    1.000
    C147     C        0.43770    0.44600    0.48050    1.000
    C148     C        0.37820    0.39160    0.46530    1.000
    H109     H        0.31750    0.39930    0.43700    1.000
    C149     C        0.40600    0.32850    0.49030    1.000
    H110     H        0.36530    0.29240    0.47750    1.000
    C150     C        0.49540    0.31650    0.53530    1.000
    H111     H        0.51440    0.27220    0.55260    1.000
    C151     C        0.44610    0.63240    0.44610    1.000
    H112     H        0.38670    0.64120    0.41420    1.000
    C152     C        0.41130    0.51230    0.45450    1.000
    N19      N        0.03330    0.52350    0.06630    1.000
    O22      O        0.07200    0.46980    0.07320    1.000
    O23      O        0.00180    0.54650    0.99350    1.000
    O24      O        0.03115    0.55347    0.13271    1.000
    N20      N        0.86220    0.54626    0.18290    1.000
    C153     C        0.95370    0.40750    0.18250    1.000
    H113     H        0.92040    0.43170    0.13360    1.000
    C154     C        0.95090    0.33840    0.17920    1.000
    H114     H        0.91610    0.31620    0.12940    1.000
    C155     C        0.92310    0.19170    0.21250    1.000
    H115     H        0.86990    0.21500    0.18600    1.000
    C156     C        0.92300    0.12230    0.21320    1.000
    H116     H        0.86940    0.09900    0.18820    1.000
    C157     C        0.94240    0.97580    0.18380    1.000
    H117     H        0.90240    0.99910    0.13790    1.000
    C158     C        0.94240    0.90640    0.18390    1.000
    H118     H        0.90260    0.88280    0.13810    1.000
    C159     C        0.98530    0.69070    0.17650    1.000
    H119     H        0.97500    0.66720    0.12360    1.000
    C160     C        0.98450    0.75980    0.17420    1.000
    H120     H        0.97330    0.78240    0.12070    1.000
    C161     C        0.80330    0.52500    0.22250    1.000
    H121     H        0.82310    0.51720    0.28270    1.000
    C162     C        0.71560    0.51370    0.18080    1.000
    H122     H        0.67680    0.49780    0.21190    1.000
    C163     C        0.68400    0.52570    0.09330    1.000
    C164     C        0.74340    0.54840    0.05230    1.000
    H123     H        0.72460    0.55780    0.99240    1.000
    C165     C        0.83090    0.55780    0.09850    1.000
    H124     H        0.87090    0.57320    0.06860    1.000
    C166     C        0.52860    0.56570    0.02680    1.000
    C167     C        0.56230    0.44600    0.01950    1.000
    C168     C        0.62180    0.39160    0.03470    1.000
    H125     H        0.68250    0.39930    0.06300    1.000
    C169     C        0.59400    0.32850    0.00970    1.000
    H126     H        0.63470    0.29240    0.02250    1.000
    C170     C        0.50460    0.31650    0.96470    1.000
    H127     H        0.48560    0.27220    0.94740    1.000
    C171     C        0.55390    0.63240    0.05390    1.000
    H128     H        0.61330    0.64120    0.08580    1.000
    C172     C        0.58870    0.51230    0.04550    1.000
    Ni3      Ni       0.00000    0.45153    0.75000    1.000
    N21      N        0.00000    0.55790    0.75000    1.000
    C173     C        0.00000    0.69850    0.75000    1.000
    C174     C        0.00000    0.77210    0.75000    1.000
    C175     C        0.00000    0.91370    0.75000    1.000
    C176     C        0.00000    0.98790    0.75000    1.000
    C177     C        0.00000    0.12920    0.75000    1.000
    N22      N        0.00000    0.34550    0.75000    1.000
    C178     C        0.00000    0.20360    0.75000    1.000
    Ni4      Ni       0.00000    0.54847    0.25000    1.000
    N23      N        0.00000    0.44210    0.25000    1.000
    C179     C        0.00000    0.30150    0.25000    1.000
    C180     C        0.00000    0.22790    0.25000    1.000
    C181     C        0.00000    0.08630    0.25000    1.000
    C182     C        0.00000    0.01210    0.25000    1.000
    C183     C        0.00000    0.87080    0.25000    1.000
    N24      N        0.00000    0.65450    0.25000    1.000
    C184     C        0.00000    0.79640    0.25000    1.000
