# CIF file generated by openbabel 3.1.0, see https://openbabel.org
data_I
_chemical_name_common 'image0'
_cell_length_a 7.151
_cell_length_b 24.8988
_cell_length_c 28.6097
_cell_angle_alpha 90
_cell_angle_beta 93.406
_cell_angle_gamma 90
_space_group_name_H-M_alt 'P 1'
_space_group_name_Hall 'P 1'
loop_
    _symmetry_equiv_pos_as_xyz
    x,y,z
loop_
    _atom_site_label
    _atom_site_type_symbol
    _atom_site_fract_x
    _atom_site_fract_y
    _atom_site_fract_z
    _atom_site_occupancy
    C1       C        0.33800    0.50460    0.81140    1.000
    C2       C        0.39510    0.46500    0.84950    1.000
    C3       C        0.57870    0.46590    0.86890    1.000
    H1       H        0.66470    0.48990    0.85750    1.000
    C4       C        0.63320    0.43160    0.90490    1.000
    H2       H        0.75550    0.43320    0.91780    1.000
    C5       C        0.50930    0.39470    0.92240    1.000
    C6       C        0.32540    0.39380    0.90280    1.000
    H3       H        0.23990    0.36930    0.91370    1.000
    C7       C        0.27060    0.42870    0.86750    1.000
    H4       H        0.14700    0.42810    0.85540    1.000
    C8       C        0.56230    0.35770    0.96230    1.000
    C9       C        0.45580    0.36060    0.00140    1.000
    H5       H        0.35420    0.38400    0.00100    1.000
    C10      C        0.49700    0.32990    0.04050    1.000
    C11      C        0.38550    0.34000    0.08290    1.000
    C12      C        0.18990    0.33890    0.07760    1.000
    H6       H        0.13050    0.33020    0.04880    1.000
    C13      C        0.08300    0.35090    0.11610    1.000
    H7       H        0.95300    0.34980    0.11260    1.000
    C14      C        0.16710    0.36410    0.15820    1.000
    C15      C        0.05500    0.38250    0.19750    1.000
    C16      C        0.36020    0.36500    0.16320    1.000
    H8       H        0.41820    0.37390    0.19210    1.000
    C17      C        0.46760    0.35330    0.12700    1.000
    H9       H        0.59740    0.35410    0.13160    1.000
    C18      C        0.64400    0.29250    0.04140    1.000
    C19      C        0.68810    0.25680    0.08000    1.000
    H10      H        0.61660    0.25850    0.10610    1.000
    C20      C        0.82840    0.22120    0.07980    1.000
    H11      H        0.85350    0.19960    0.10600    1.000
    C21      C        0.94100    0.21560    0.04030    1.000
    C22      C        0.90310    0.25070    0.00130    1.000
    C23      C        0.75310    0.28850    0.00180    1.000
    C24      C        0.71540    0.32260    0.96250    1.000
    C25      C        0.82890    0.31650    0.92250    1.000
    H12      H        0.80440    0.33820    0.89640    1.000
    C26      C        0.96910    0.28040    0.92220    1.000
    H13      H        0.03860    0.27800    0.89580    1.000
    C27      C        0.01400    0.24570    0.96090    1.000
    C28      C        0.16330    0.20930    0.96210    1.000
    C29      C        0.19810    0.17800    0.00060    1.000
    H14      H        0.29700    0.15380    0.00080    1.000
    C30      C        0.09400    0.18070    0.03920    1.000
    C31      C        0.13910    0.13990    0.07780    1.000
    C32      C        0.00280    0.10700    0.09540    1.000
    H15      H        0.87780    0.11240    0.08560    1.000
    C33      C        0.04930    0.06620    0.12730    1.000
    H16      H        0.95640    0.04370    0.13750    1.000
    C34      C        0.23200    0.05930    0.14350    1.000
    C35      C        0.28180    0.01780    0.18130    1.000
    C36      C        0.36990    0.09160    0.12860    1.000
    H17      H        0.49370    0.08680    0.13970    1.000
    C37      C        0.32160    0.13290    0.09590    1.000
    H18      H        0.41480    0.15570    0.08630    1.000
    C38      C        0.27670    0.19960    0.92040    1.000
    C39      C        0.47180    0.20040    0.92580    1.000
    H19      H        0.53050    0.21250    0.95370    1.000
    C40      C        0.57670    0.18370    0.89050    1.000
    H20      H        0.70670    0.18520    0.89390    1.000
    C41      C        0.49150    0.16490    0.85010    1.000
    C42      C        0.60620    0.14180    0.81260    1.000
    C43      C        0.29940    0.16500    0.84170    1.000
    H21      H        0.24360    0.15340    0.81330    1.000
    C44      C        0.19400    0.18290    0.87740    1.000
    H22      H        0.06420    0.18390    0.87270    1.000
    Cd1      Cd       0.19646    0.57891    0.74620    1.000
    Cd2      Cd       0.65257    0.53774    0.73502    1.000
    O1       O        0.11890    0.40704    0.23213    1.000
    O2       O        0.88330    0.36750    0.19322    1.000
    O3       O        0.77860    0.14600    0.81681    1.000
    O4       O        0.52760    0.11300    0.78014    1.000
    O5       O        0.44980    0.01910    0.19700    1.000
    O6       O        0.17120    0.50070    0.79720    1.000
    O7       O        0.44960    0.53460    0.79352    1.000
    O8       O        0.16350    0.98190    0.18858    1.000
    C45      C        0.98600    0.15520    0.11840    1.000
    C46      C        0.88610    0.11050    0.13190    1.000
    H23      H        0.75670    0.10930    0.12650    1.000
    C47      C        0.98000    0.06750    0.15360    1.000
    H24      H        0.91360    0.03750    0.16270    1.000
    C48      C        0.17400    0.06930    0.16170    1.000
    C49      C        0.27310    0.11400    0.14810    1.000
    H25      H        0.40250    0.11520    0.15360    1.000
    C50      C        0.17900    0.15700    0.12650    1.000
    H26      H        0.24560    0.18700    0.11740    1.000
    C51      C        0.34300    0.48970    0.80270    1.000
    C52      C        0.46900    0.45320    0.83250    1.000
    C53      C        0.65500    0.46240    0.84800    1.000
    H27      H        0.71070    0.49510    0.84160    1.000
    C54      C        0.75800    0.42360    0.87270    1.000
    H28      H        0.88210    0.43010    0.88300    1.000
    C55      C        0.67500    0.37490    0.88190    1.000
    C56      C        0.48900    0.36510    0.86660    1.000
    H29      H        0.43380    0.33230    0.87260    1.000
    C57      C        0.38900    0.40460    0.84220    1.000
    H30      H        0.26440    0.39830    0.83230    1.000
    C58      C        0.61500    0.34260    0.97640    1.000
    H31      H        0.55010    0.37100    0.96190    1.000
    C59      C        0.57200    0.32720    0.02150    1.000
    H32      H        0.48160    0.34660    0.03640    1.000
    C60      C        0.66000    0.28300    0.04500    1.000
    C61      C        0.46400    0.29390    0.11620    1.000
    C62      C        0.27800    0.29590    0.10110    1.000
    H33      H        0.23790    0.28100    0.07250    1.000
    C63      C        0.15000    0.32010    0.12880    1.000
    H34      H        0.02320    0.32020    0.11920    1.000
    C64      C        0.21000    0.34430    0.17070    1.000
    C65      C        0.05200    0.36700    0.19600    1.000
    C66      C        0.39600    0.34160    0.18680    1.000
    H35      H        0.43730    0.35700    0.21520    1.000
    C67      C        0.51800    0.31530    0.15920    1.000
    H36      H        0.64220    0.31190    0.17010    1.000
    C68      C        0.80400    0.25840    0.02170    1.000
    C69      C        0.61900    0.26630    0.09040    1.000
    C70      C        0.72700    0.22520    0.11100    1.000
    H37      H        0.69760    0.21410    0.14070    1.000
    C71      C        0.91000    0.21730    0.04500    1.000
    C72      C        0.84800    0.27470    0.97670    1.000
    C73      C        0.75300    0.31620    0.95260    1.000
    C74      C        0.93100    0.30600    0.88670    1.000
    H38      H        0.95740    0.31620    0.85660    1.000
    C75      C        0.78400    0.33120    0.90690    1.000
    C76      C        0.04300    0.26600    0.90860    1.000
    C77      C        0.99500    0.25100    0.95350    1.000
    C78      C        0.08400    0.20560    0.97460    1.000
    H39      H        0.17640    0.18780    0.95910    1.000
    C79      C        0.87700    0.19890    0.09090    1.000
    C80      C        0.03400    0.18730    0.01870    1.000
    H40      H        0.08330    0.15510    0.03060    1.000
    C81      C        0.19000    0.23930    0.88210    1.000
    C82      C        0.37600    0.23760    0.89850    1.000
    H41      H        0.41480    0.25390    0.92660    1.000
    C83      C        0.50300    0.21100    0.87190    1.000
    H42      H        0.62910    0.21530    0.88050    1.000
    C84      C        0.45500    0.17790    0.83280    1.000
    C85      C        0.26500    0.18440    0.81590    1.000
    H43      H        0.22700    0.17000    0.78690    1.000
    C86      C        0.13400    0.21170    0.84170    1.000
    H44      H        0.00780    0.21130    0.83150    1.000
    C87      C        0.66200    0.00460    0.68860    1.000
    C88      C        0.60490    0.96500    0.65050    1.000
    C89      C        0.42130    0.96590    0.63110    1.000
    H45      H        0.33530    0.98990    0.64250    1.000
    C90      C        0.36680    0.93160    0.59510    1.000
    H46      H        0.24450    0.93320    0.58220    1.000
    C91      C        0.49070    0.89470    0.57760    1.000
    C92      C        0.67460    0.89380    0.59720    1.000
    H47      H        0.76010    0.86930    0.58630    1.000
    C93      C        0.72940    0.92870    0.63250    1.000
    H48      H        0.85300    0.92810    0.64460    1.000
    C94      C        0.43770    0.85770    0.53770    1.000
    C95      C        0.54420    0.86060    0.49860    1.000
    H49      H        0.64580    0.88400    0.49900    1.000
    C96      C        0.50300    0.82990    0.45950    1.000
    C97      C        0.61450    0.84000    0.41710    1.000
    C98      C        0.81010    0.83890    0.42240    1.000
    H50      H        0.86950    0.83020    0.45120    1.000
    C99      C        0.91700    0.85090    0.38390    1.000
    H51      H        0.04700    0.84980    0.38740    1.000
    C100     C        0.83290    0.86410    0.34180    1.000
    C101     C        0.94500    0.88250    0.30250    1.000
    C102     C        0.63980    0.86500    0.33680    1.000
    H52      H        0.58180    0.87390    0.30790    1.000
    C103     C        0.53240    0.85330    0.37300    1.000
    H53      H        0.40260    0.85410    0.36840    1.000
    C104     C        0.35600    0.79250    0.45860    1.000
    C105     C        0.31190    0.75680    0.42000    1.000
    H54      H        0.38340    0.75850    0.39390    1.000
    C106     C        0.17160    0.72120    0.42020    1.000
    H55      H        0.14650    0.69960    0.39400    1.000
    C107     C        0.05900    0.71560    0.45970    1.000
    C108     C        0.09690    0.75070    0.49870    1.000
    C109     C        0.24690    0.78850    0.49820    1.000
    C110     C        0.28460    0.82260    0.53750    1.000
    C111     C        0.17110    0.81650    0.57750    1.000
    H56      H        0.19560    0.83820    0.60360    1.000
    C112     C        0.03090    0.78040    0.57780    1.000
    H57      H        0.96140    0.77800    0.60420    1.000
    C113     C        0.98600    0.74570    0.53910    1.000
    C114     C        0.83670    0.70930    0.53790    1.000
    C115     C        0.80190    0.67800    0.49940    1.000
    H58      H        0.70300    0.65380    0.49920    1.000
    C116     C        0.90600    0.68070    0.46080    1.000
    C117     C        0.86090    0.63990    0.42220    1.000
    C118     C        0.99720    0.60700    0.40460    1.000
    H59      H        0.12220    0.61240    0.41440    1.000
    C119     C        0.95070    0.56620    0.37270    1.000
    H60      H        0.04360    0.54370    0.36250    1.000
    C120     C        0.76800    0.55930    0.35650    1.000
    C121     C        0.71820    0.51780    0.31870    1.000
    C122     C        0.63010    0.59160    0.37140    1.000
    H61      H        0.50630    0.58680    0.36030    1.000
    C123     C        0.67840    0.63290    0.40410    1.000
    H62      H        0.58520    0.65570    0.41370    1.000
    C124     C        0.72330    0.69960    0.57960    1.000
    C125     C        0.52820    0.70040    0.57420    1.000
    H63      H        0.46950    0.71250    0.54630    1.000
    C126     C        0.42330    0.68370    0.60950    1.000
    H64      H        0.29330    0.68520    0.60610    1.000
    C127     C        0.50850    0.66490    0.64990    1.000
    C128     C        0.39380    0.64180    0.68740    1.000
    C129     C        0.70060    0.66500    0.65830    1.000
    H65      H        0.75640    0.65340    0.68670    1.000
    C130     C        0.80600    0.68290    0.62260    1.000
    H66      H        0.93580    0.68390    0.62730    1.000
    Cd3      Cd       0.80354    0.07891    0.75380    1.000
    Cd4      Cd       0.34743    0.03774    0.76498    1.000
    O9       O        0.88110    0.90704    0.26787    1.000
    O10      O        0.11670    0.86750    0.30678    1.000
    O11      O        0.22140    0.64600    0.68319    1.000
    O12      O        0.47240    0.61300    0.71986    1.000
    O13      O        0.55020    0.51910    0.30300    1.000
    O14      O        0.82880    0.00070    0.70280    1.000
    O15      O        0.55040    0.03460    0.70648    1.000
    O16      O        0.83650    0.48190    0.31142    1.000
    C131     C        0.01400    0.65520    0.38160    1.000
    C132     C        0.11390    0.61050    0.36810    1.000
    H67      H        0.24330    0.60930    0.37350    1.000
    C133     C        0.02000    0.56750    0.34640    1.000
    H68      H        0.08640    0.53750    0.33730    1.000
    C134     C        0.82600    0.56930    0.33830    1.000
    C135     C        0.72690    0.61400    0.35190    1.000
    H69      H        0.59750    0.61520    0.34640    1.000
    C136     C        0.82100    0.65700    0.37350    1.000
    H70      H        0.75440    0.68700    0.38260    1.000
    C137     C        0.65700    0.98970    0.69730    1.000
    C138     C        0.53100    0.95320    0.66750    1.000
    C139     C        0.34500    0.96240    0.65200    1.000
    H71      H        0.28930    0.99510    0.65840    1.000
    C140     C        0.24200    0.92360    0.62730    1.000
    H72      H        0.11790    0.93010    0.61700    1.000
    C141     C        0.32500    0.87490    0.61810    1.000
    C142     C        0.51100    0.86510    0.63340    1.000
    H73      H        0.56620    0.83230    0.62740    1.000
    C143     C        0.61100    0.90460    0.65780    1.000
    H74      H        0.73560    0.89830    0.66770    1.000
    C144     C        0.38500    0.84260    0.52360    1.000
    H75      H        0.44990    0.87100    0.53810    1.000
    C145     C        0.42800    0.82720    0.47850    1.000
    H76      H        0.51840    0.84660    0.46360    1.000
    C146     C        0.34000    0.78300    0.45500    1.000
    C147     C        0.53600    0.79390    0.38380    1.000
    C148     C        0.72200    0.79590    0.39890    1.000
    H77      H        0.76210    0.78100    0.42750    1.000
    C149     C        0.85000    0.82010    0.37120    1.000
    H78      H        0.97680    0.82020    0.38080    1.000
    C150     C        0.79000    0.84430    0.32930    1.000
    C151     C        0.94800    0.86700    0.30400    1.000
    C152     C        0.60400    0.84160    0.31320    1.000
    H79      H        0.56270    0.85700    0.28480    1.000
    C153     C        0.48200    0.81530    0.34080    1.000
    H80      H        0.35780    0.81190    0.32990    1.000
    C154     C        0.19600    0.75840    0.47830    1.000
    C155     C        0.38100    0.76630    0.40960    1.000
    C156     C        0.27300    0.72520    0.38900    1.000
    H81      H        0.30240    0.71410    0.35930    1.000
    C157     C        0.09000    0.71730    0.45500    1.000
    C158     C        0.15200    0.77470    0.52330    1.000
    C159     C        0.24700    0.81620    0.54740    1.000
    C160     C        0.06900    0.80600    0.61330    1.000
    H82      H        0.04260    0.81620    0.64340    1.000
    C161     C        0.21600    0.83120    0.59310    1.000
    C162     C        0.95700    0.76600    0.59140    1.000
    C163     C        0.00500    0.75100    0.54650    1.000
    C164     C        0.91600    0.70560    0.52540    1.000
    H83      H        0.82360    0.68780    0.54090    1.000
    C165     C        0.12300    0.69890    0.40910    1.000
    C166     C        0.96600    0.68730    0.48130    1.000
    H84      H        0.91670    0.65510    0.46940    1.000
    C167     C        0.81000    0.73930    0.61790    1.000
    C168     C        0.62400    0.73760    0.60150    1.000
    H85      H        0.58520    0.75390    0.57340    1.000
    C169     C        0.49700    0.71100    0.62810    1.000
    H86      H        0.37090    0.71530    0.61950    1.000
    C170     C        0.54500    0.67790    0.66720    1.000
    C171     C        0.73500    0.68440    0.68410    1.000
    H87      H        0.77300    0.67000    0.71310    1.000
    C172     C        0.86600    0.71170    0.65830    1.000
    H88      H        0.99220    0.71130    0.66850    1.000
    C173     C        0.66200    0.49540    0.18860    1.000
    C174     C        0.60490    0.53500    0.15050    1.000
    C175     C        0.42130    0.53410    0.13110    1.000
    H89      H        0.33530    0.51010    0.14250    1.000
    C176     C        0.36680    0.56840    0.09510    1.000
    H90      H        0.24450    0.56680    0.08220    1.000
    C177     C        0.49070    0.60530    0.07760    1.000
    C178     C        0.67460    0.60620    0.09720    1.000
    H91      H        0.76010    0.63070    0.08630    1.000
    C179     C        0.72940    0.57130    0.13250    1.000
    H92      H        0.85300    0.57190    0.14460    1.000
    C180     C        0.43770    0.64230    0.03770    1.000
    C181     C        0.54420    0.63940    0.99860    1.000
    H93      H        0.64580    0.61600    0.99900    1.000
    C182     C        0.50300    0.67010    0.95950    1.000
    C183     C        0.61450    0.66000    0.91710    1.000
    C184     C        0.81010    0.66110    0.92240    1.000
    H94      H        0.86950    0.66980    0.95120    1.000
    C185     C        0.91700    0.64910    0.88390    1.000
    H95      H        0.04700    0.65020    0.88740    1.000
    C186     C        0.83290    0.63590    0.84180    1.000
    C187     C        0.94500    0.61750    0.80250    1.000
    C188     C        0.63980    0.63500    0.83680    1.000
    H96      H        0.58180    0.62610    0.80790    1.000
    C189     C        0.53240    0.64670    0.87300    1.000
    H97      H        0.40260    0.64590    0.86840    1.000
    C190     C        0.35600    0.70750    0.95860    1.000
    C191     C        0.31190    0.74320    0.92000    1.000
    H98      H        0.38340    0.74150    0.89390    1.000
    C192     C        0.17160    0.77880    0.92020    1.000
    H99      H        0.14650    0.80040    0.89400    1.000
    C193     C        0.05900    0.78440    0.95970    1.000
    C194     C        0.09690    0.74930    0.99870    1.000
    C195     C        0.24690    0.71150    0.99820    1.000
    C196     C        0.28460    0.67740    0.03750    1.000
    C197     C        0.17110    0.68350    0.07750    1.000
    H100     H        0.19560    0.66180    0.10360    1.000
    C198     C        0.03090    0.71960    0.07780    1.000
    H101     H        0.96140    0.72200    0.10420    1.000
    C199     C        0.98600    0.75430    0.03910    1.000
    C200     C        0.83670    0.79070    0.03790    1.000
    C201     C        0.80190    0.82200    0.99940    1.000
    H102     H        0.70300    0.84620    0.99920    1.000
    C202     C        0.90600    0.81930    0.96080    1.000
    C203     C        0.86090    0.86010    0.92220    1.000
    C204     C        0.99720    0.89300    0.90460    1.000
    H103     H        0.12220    0.88760    0.91440    1.000
    C205     C        0.95070    0.93380    0.87270    1.000
    H104     H        0.04360    0.95630    0.86250    1.000
    C206     C        0.76800    0.94070    0.85650    1.000
    C207     C        0.71820    0.98220    0.81870    1.000
    C208     C        0.63010    0.90840    0.87140    1.000
    H105     H        0.50630    0.91320    0.86030    1.000
    C209     C        0.67840    0.86710    0.90410    1.000
    H106     H        0.58520    0.84430    0.91370    1.000
    C210     C        0.72330    0.80040    0.07960    1.000
    C211     C        0.52820    0.79960    0.07420    1.000
    H107     H        0.46950    0.78750    0.04630    1.000
    C212     C        0.42330    0.81630    0.10950    1.000
    H108     H        0.29330    0.81480    0.10610    1.000
    C213     C        0.50850    0.83510    0.14990    1.000
    C214     C        0.39380    0.85820    0.18740    1.000
    C215     C        0.70060    0.83500    0.15830    1.000
    H109     H        0.75640    0.84660    0.18670    1.000
    C216     C        0.80600    0.81710    0.12260    1.000
    H110     H        0.93580    0.81610    0.12730    1.000
    Cd5      Cd       0.80354    0.42109    0.25380    1.000
    Cd6      Cd       0.34743    0.46226    0.26498    1.000
    O17      O        0.88110    0.59296    0.76787    1.000
    O18      O        0.11670    0.63250    0.80678    1.000
    O19      O        0.22140    0.85400    0.18319    1.000
    O20      O        0.47240    0.88700    0.21986    1.000
    O21      O        0.55020    0.98090    0.80300    1.000
    O22      O        0.82880    0.49930    0.20280    1.000
    O23      O        0.55040    0.46540    0.20648    1.000
    O24      O        0.83650    0.01810    0.81142    1.000
    C217     C        0.01400    0.84480    0.88160    1.000
    C218     C        0.11390    0.88950    0.86810    1.000
    H111     H        0.24330    0.89070    0.87350    1.000
    C219     C        0.02000    0.93250    0.84640    1.000
    H112     H        0.08640    0.96250    0.83730    1.000
    C220     C        0.82600    0.93070    0.83830    1.000
    C221     C        0.72690    0.88600    0.85190    1.000
    H113     H        0.59750    0.88480    0.84640    1.000
    C222     C        0.82100    0.84300    0.87350    1.000
    H114     H        0.75440    0.81300    0.88260    1.000
    C223     C        0.65700    0.51030    0.19730    1.000
    C224     C        0.53100    0.54680    0.16750    1.000
    C225     C        0.34500    0.53760    0.15200    1.000
    H115     H        0.28930    0.50490    0.15840    1.000
    C226     C        0.24200    0.57640    0.12730    1.000
    H116     H        0.11790    0.56990    0.11700    1.000
    C227     C        0.32500    0.62510    0.11810    1.000
    C228     C        0.51100    0.63490    0.13340    1.000
    H117     H        0.56620    0.66770    0.12740    1.000
    C229     C        0.61100    0.59540    0.15780    1.000
    H118     H        0.73560    0.60170    0.16770    1.000
    C230     C        0.38500    0.65740    0.02360    1.000
    H119     H        0.44990    0.62900    0.03810    1.000
    C231     C        0.42800    0.67280    0.97850    1.000
    H120     H        0.51840    0.65340    0.96360    1.000
    C232     C        0.34000    0.71700    0.95500    1.000
    C233     C        0.53600    0.70610    0.88380    1.000
    C234     C        0.72200    0.70410    0.89890    1.000
    H121     H        0.76210    0.71900    0.92750    1.000
    C235     C        0.85000    0.67990    0.87120    1.000
    H122     H        0.97680    0.67980    0.88080    1.000
    C236     C        0.79000    0.65570    0.82930    1.000
    C237     C        0.94800    0.63300    0.80400    1.000
    C238     C        0.60400    0.65840    0.81320    1.000
    H123     H        0.56270    0.64300    0.78480    1.000
    C239     C        0.48200    0.68470    0.84080    1.000
    H124     H        0.35780    0.68810    0.82990    1.000
    C240     C        0.19600    0.74160    0.97830    1.000
    C241     C        0.38100    0.73370    0.90960    1.000
    C242     C        0.27300    0.77480    0.88900    1.000
    H125     H        0.30240    0.78590    0.85930    1.000
    C243     C        0.09000    0.78270    0.95500    1.000
    C244     C        0.15200    0.72530    0.02330    1.000
    C245     C        0.24700    0.68380    0.04740    1.000
    C246     C        0.06900    0.69400    0.11330    1.000
    H126     H        0.04260    0.68380    0.14340    1.000
    C247     C        0.21600    0.66880    0.09310    1.000
    C248     C        0.95700    0.73400    0.09140    1.000
    C249     C        0.00500    0.74900    0.04650    1.000
    C250     C        0.91600    0.79440    0.02540    1.000
    H127     H        0.82360    0.81220    0.04090    1.000
    C251     C        0.12300    0.80110    0.90910    1.000
    C252     C        0.96600    0.81270    0.98130    1.000
    H128     H        0.91670    0.84490    0.96940    1.000
    C253     C        0.81000    0.76070    0.11790    1.000
    C254     C        0.62400    0.76240    0.10150    1.000
    H129     H        0.58520    0.74610    0.07340    1.000
    C255     C        0.49700    0.78900    0.12810    1.000
    H130     H        0.37090    0.78470    0.11950    1.000
    C256     C        0.54500    0.82210    0.16720    1.000
    C257     C        0.73500    0.81560    0.18410    1.000
    H131     H        0.77300    0.83000    0.21310    1.000
    C258     C        0.86600    0.78830    0.15830    1.000
    H132     H        0.99220    0.78870    0.16850    1.000
    C259     C        0.33800    0.99540    0.31140    1.000
    C260     C        0.39510    0.03500    0.34950    1.000
    C261     C        0.57870    0.03410    0.36890    1.000
    H133     H        0.66470    0.01010    0.35750    1.000
    C262     C        0.63320    0.06840    0.40490    1.000
    H134     H        0.75550    0.06680    0.41780    1.000
    C263     C        0.50930    0.10530    0.42240    1.000
    C264     C        0.32540    0.10620    0.40280    1.000
    H135     H        0.23990    0.13070    0.41370    1.000
    C265     C        0.27060    0.07130    0.36750    1.000
    H136     H        0.14700    0.07190    0.35540    1.000
    C266     C        0.56230    0.14230    0.46230    1.000
    C267     C        0.45580    0.13940    0.50140    1.000
    H137     H        0.35420    0.11600    0.50100    1.000
    C268     C        0.49700    0.17010    0.54050    1.000
    C269     C        0.38550    0.16000    0.58290    1.000
    C270     C        0.18990    0.16110    0.57760    1.000
    H138     H        0.13050    0.16980    0.54880    1.000
    C271     C        0.08300    0.14910    0.61610    1.000
    H139     H        0.95300    0.15020    0.61260    1.000
    C272     C        0.16710    0.13590    0.65820    1.000
    C273     C        0.05500    0.11750    0.69750    1.000
    C274     C        0.36020    0.13500    0.66320    1.000
    H140     H        0.41820    0.12610    0.69210    1.000
    C275     C        0.46760    0.14670    0.62700    1.000
    H141     H        0.59740    0.14590    0.63160    1.000
    C276     C        0.64400    0.20750    0.54140    1.000
    C277     C        0.68810    0.24320    0.58000    1.000
    H142     H        0.61660    0.24150    0.60610    1.000
    C278     C        0.82840    0.27880    0.57980    1.000
    H143     H        0.85350    0.30040    0.60600    1.000
    C279     C        0.94100    0.28440    0.54030    1.000
    C280     C        0.90310    0.24930    0.50130    1.000
    C281     C        0.75310    0.21150    0.50180    1.000
    C282     C        0.71540    0.17740    0.46250    1.000
    C283     C        0.82890    0.18350    0.42250    1.000
    H144     H        0.80440    0.16180    0.39640    1.000
    C284     C        0.96910    0.21960    0.42220    1.000
    H145     H        0.03860    0.22200    0.39580    1.000
    C285     C        0.01400    0.25430    0.46090    1.000
    C286     C        0.16330    0.29070    0.46210    1.000
    C287     C        0.19810    0.32200    0.50060    1.000
    H146     H        0.29700    0.34620    0.50080    1.000
    C288     C        0.09400    0.31930    0.53920    1.000
    C289     C        0.13910    0.36010    0.57780    1.000
    C290     C        0.00280    0.39300    0.59540    1.000
    H147     H        0.87780    0.38760    0.58560    1.000
    C291     C        0.04930    0.43380    0.62730    1.000
    H148     H        0.95640    0.45630    0.63750    1.000
    C292     C        0.23200    0.44070    0.64350    1.000
    C293     C        0.28180    0.48220    0.68130    1.000
    C294     C        0.36990    0.40840    0.62860    1.000
    H149     H        0.49370    0.41320    0.63970    1.000
    C295     C        0.32160    0.36710    0.59590    1.000
    H150     H        0.41480    0.34430    0.58630    1.000
    C296     C        0.27670    0.30040    0.42040    1.000
    C297     C        0.47180    0.29960    0.42580    1.000
    H151     H        0.53050    0.28750    0.45370    1.000
    C298     C        0.57670    0.31630    0.39050    1.000
    H152     H        0.70670    0.31480    0.39390    1.000
    C299     C        0.49150    0.33510    0.35010    1.000
    C300     C        0.60620    0.35820    0.31260    1.000
    C301     C        0.29940    0.33500    0.34170    1.000
    H153     H        0.24360    0.34660    0.31330    1.000
    C302     C        0.19400    0.31710    0.37740    1.000
    H154     H        0.06420    0.31610    0.37270    1.000
    Cd7      Cd       0.19646    0.92109    0.24620    1.000
    Cd8      Cd       0.65257    0.96226    0.23502    1.000
    O25      O        0.11890    0.09296    0.73213    1.000
    O26      O        0.88330    0.13250    0.69322    1.000
    O27      O        0.77860    0.35400    0.31681    1.000
    O28      O        0.52760    0.38700    0.28014    1.000
    O29      O        0.44980    0.48090    0.69700    1.000
    O30      O        0.17120    0.99930    0.29720    1.000
    O31      O        0.44960    0.96540    0.29352    1.000
    O32      O        0.16350    0.51810    0.68858    1.000
    C303     C        0.98600    0.34480    0.61840    1.000
    C304     C        0.88610    0.38950    0.63190    1.000
    H155     H        0.75670    0.39070    0.62650    1.000
    C305     C        0.98000    0.43250    0.65360    1.000
    H156     H        0.91360    0.46250    0.66270    1.000
    C306     C        0.17400    0.43070    0.66170    1.000
    C307     C        0.27310    0.38600    0.64810    1.000
    H157     H        0.40250    0.38480    0.65360    1.000
    C308     C        0.17900    0.34300    0.62650    1.000
    H158     H        0.24560    0.31300    0.61740    1.000
    C309     C        0.34300    0.01030    0.30270    1.000
    C310     C        0.46900    0.04680    0.33250    1.000
    C311     C        0.65500    0.03760    0.34800    1.000
    H159     H        0.71070    0.00490    0.34160    1.000
    C312     C        0.75800    0.07640    0.37270    1.000
    H160     H        0.88210    0.06990    0.38300    1.000
    C313     C        0.67500    0.12510    0.38190    1.000
    C314     C        0.48900    0.13490    0.36660    1.000
    H161     H        0.43380    0.16770    0.37260    1.000
    C315     C        0.38900    0.09540    0.34220    1.000
    H162     H        0.26440    0.10170    0.33230    1.000
    C316     C        0.61500    0.15740    0.47640    1.000
    H163     H        0.55010    0.12900    0.46190    1.000
    C317     C        0.57200    0.17280    0.52150    1.000
    H164     H        0.48160    0.15340    0.53640    1.000
    C318     C        0.66000    0.21700    0.54500    1.000
    C319     C        0.46400    0.20610    0.61620    1.000
    C320     C        0.27800    0.20410    0.60110    1.000
    H165     H        0.23790    0.21900    0.57250    1.000
    C321     C        0.15000    0.17990    0.62880    1.000
    H166     H        0.02320    0.17980    0.61920    1.000
    C322     C        0.21000    0.15570    0.67070    1.000
    C323     C        0.05200    0.13300    0.69600    1.000
    C324     C        0.39600    0.15840    0.68680    1.000
    H167     H        0.43730    0.14300    0.71520    1.000
    C325     C        0.51800    0.18470    0.65920    1.000
    H168     H        0.64220    0.18810    0.67010    1.000
    C326     C        0.80400    0.24160    0.52170    1.000
    C327     C        0.61900    0.23370    0.59040    1.000
    C328     C        0.72700    0.27480    0.61100    1.000
    H169     H        0.69760    0.28590    0.64070    1.000
    C329     C        0.91000    0.28270    0.54500    1.000
    C330     C        0.84800    0.22530    0.47670    1.000
    C331     C        0.75300    0.18380    0.45260    1.000
    C332     C        0.93100    0.19400    0.38670    1.000
    H170     H        0.95740    0.18380    0.35660    1.000
    C333     C        0.78400    0.16880    0.40690    1.000
    C334     C        0.04300    0.23400    0.40860    1.000
    C335     C        0.99500    0.24900    0.45350    1.000
    C336     C        0.08400    0.29440    0.47460    1.000
    H171     H        0.17640    0.31220    0.45910    1.000
    C337     C        0.87700    0.30110    0.59090    1.000
    C338     C        0.03400    0.31270    0.51870    1.000
    H172     H        0.08330    0.34490    0.53060    1.000
    C339     C        0.19000    0.26070    0.38210    1.000
    C340     C        0.37600    0.26240    0.39850    1.000
    H173     H        0.41480    0.24610    0.42660    1.000
    C341     C        0.50300    0.28900    0.37190    1.000
    H174     H        0.62910    0.28470    0.38050    1.000
    C342     C        0.45500    0.32210    0.33280    1.000
    C343     C        0.26500    0.31560    0.31590    1.000
    H175     H        0.22700    0.33000    0.28690    1.000
    C344     C        0.13400    0.28830    0.34170    1.000
    H176     H        0.00780    0.28870    0.33150    1.000
