# CIF file generated by openbabel 3.1.0, see https://openbabel.org
data_I
_chemical_name_common 'YELYOE_clean'
_cell_length_a 14.268
_cell_length_b 15.721
_cell_length_c 16.017
_cell_angle_alpha 90
_cell_angle_beta 90
_cell_angle_gamma 90
_space_group_name_H-M_alt 'P 1'
_space_group_name_Hall 'P 1'
loop_
    _symmetry_equiv_pos_as_xyz
    x,y,z
loop_
    _atom_site_label
    _atom_site_type_symbol
    _atom_site_fract_x
    _atom_site_fract_y
    _atom_site_fract_z
    _atom_site_occupancy
    Cd1      Cd       0.12518    0.01931    0.54364    1.000
    Cd2      Cd       0.39416    0.93485    0.54087    1.000
    Cd3      Cd       0.37482    0.51931    0.45636    1.000
    Cd4      Cd       0.10584    0.43485    0.45913    1.000
    Cd5      Cd       0.87482    0.98069    0.04364    1.000
    Cd6      Cd       0.60584    0.06515    0.04087    1.000
    Cd7      Cd       0.62518    0.48069    0.95636    1.000
    Cd8      Cd       0.89416    0.56515    0.95913    1.000
    Cd9      Cd       0.87482    0.98069    0.45636    1.000
    Cd10     Cd       0.60584    0.06515    0.45913    1.000
    Cd11     Cd       0.62518    0.48069    0.54364    1.000
    Cd12     Cd       0.89416    0.56515    0.54087    1.000
    Cd13     Cd       0.12518    0.01931    0.95636    1.000
    Cd14     Cd       0.39416    0.93485    0.95913    1.000
    Cd15     Cd       0.37482    0.51931    0.04364    1.000
    Cd16     Cd       0.10584    0.43485    0.04087    1.000
    Cd17     Cd       0.73642    0.03685    0.75000    1.000
    Cd18     Cd       0.76358    0.53685    0.25000    1.000
    Cd19     Cd       0.26358    0.96315    0.25000    1.000
    Cd20     Cd       0.23642    0.46315    0.75000    1.000
    H1       H        0.02690    0.22300    0.51630    1.000
    H2       H        0.47310    0.72300    0.48370    1.000
    H3       H        0.97310    0.77700    0.01630    1.000
    H4       H        0.52690    0.27700    0.98370    1.000
    H5       H        0.97310    0.77700    0.48370    1.000
    H6       H        0.52690    0.27700    0.51630    1.000
    H7       H        0.02690    0.22300    0.98370    1.000
    H8       H        0.47310    0.72300    0.01630    1.000
    H9       H        0.32440    0.88550    0.75000    1.000
    H10      H        0.20520    0.01880    0.75000    1.000
    H11      H        0.17560    0.38550    0.25000    1.000
    H12      H        0.29480    0.51880    0.25000    1.000
    H13      H        0.67560    0.11450    0.25000    1.000
    H14      H        0.79480    0.98120    0.25000    1.000
    H15      H        0.82440    0.61450    0.75000    1.000
    H16      H        0.70520    0.48120    0.75000    1.000
    C1       C        0.09050    0.22420    0.50390    1.000
    C2       C        0.23250    0.18360    0.48520    1.000
    C3       C        0.22640    0.26950    0.46620    1.000
    C4       C        0.31220    0.12440    0.48450    1.000
    C5       C        0.29870    0.33200    0.44250    1.000
    C6       C        0.49170    0.99620    0.70650    1.000
    C7       C        0.55140    0.03900    0.64250    1.000
    C8       C        0.99940    0.02170    0.70630    1.000
    C9       C        0.92530    0.02080    0.64070    1.000
    C10      C        0.40950    0.72420    0.49610    1.000
    C11      C        0.26750    0.68360    0.51480    1.000
    C12      C        0.27360    0.76950    0.53380    1.000
    C13      C        0.18780    0.62440    0.51550    1.000
    C14      C        0.20130    0.83200    0.55750    1.000
    C15      C        0.00830    0.49620    0.29350    1.000
    C16      C        0.94860    0.53900    0.35750    1.000
    C17      C        0.50060    0.52170    0.29370    1.000
    C18      C        0.57470    0.52080    0.35930    1.000
    C19      C        0.90950    0.77580    0.00390    1.000
    C20      C        0.76750    0.81640    0.98520    1.000
    C21      C        0.77360    0.73050    0.96620    1.000
    C22      C        0.68780    0.87560    0.98450    1.000
    C23      C        0.70130    0.66800    0.94250    1.000
    C24      C        0.50830    0.00380    0.20650    1.000
    C25      C        0.44860    0.96100    0.14250    1.000
    C26      C        0.00060    0.97830    0.20630    1.000
    C27      C        0.07470    0.97920    0.14070    1.000
    C28      C        0.59050    0.27580    0.99610    1.000
    C29      C        0.73250    0.31640    0.01480    1.000
    C30      C        0.72640    0.23050    0.03380    1.000
    C31      C        0.81220    0.37560    0.01550    1.000
    C32      C        0.79870    0.16800    0.05750    1.000
    C33      C        0.99170    0.50380    0.79350    1.000
    C34      C        0.05140    0.46100    0.85750    1.000
    C35      C        0.49940    0.47830    0.79370    1.000
    C36      C        0.42530    0.47920    0.85930    1.000
    C37      C        0.90950    0.77580    0.49610    1.000
    C38      C        0.76750    0.81640    0.51480    1.000
    C39      C        0.77360    0.73050    0.53380    1.000
    C40      C        0.68780    0.87560    0.51550    1.000
    C41      C        0.70130    0.66800    0.55750    1.000
    C42      C        0.50830    0.00380    0.29350    1.000
    C43      C        0.44860    0.96100    0.35750    1.000
    C44      C        0.00060    0.97830    0.29370    1.000
    C45      C        0.07470    0.97920    0.35930    1.000
    C46      C        0.59050    0.27580    0.50390    1.000
    C47      C        0.73250    0.31640    0.48520    1.000
    C48      C        0.72640    0.23050    0.46620    1.000
    C49      C        0.81220    0.37560    0.48450    1.000
    C50      C        0.79870    0.16800    0.44250    1.000
    C51      C        0.99170    0.50380    0.70650    1.000
    C52      C        0.05140    0.46100    0.64250    1.000
    C53      C        0.49940    0.47830    0.70630    1.000
    C54      C        0.42530    0.47920    0.64070    1.000
    C55      C        0.09050    0.22420    0.99610    1.000
    C56      C        0.23250    0.18360    0.01480    1.000
    C57      C        0.22640    0.26950    0.03380    1.000
    C58      C        0.31220    0.12440    0.01550    1.000
    C59      C        0.29870    0.33200    0.05750    1.000
    C60      C        0.49170    0.99620    0.79350    1.000
    C61      C        0.55140    0.03900    0.85750    1.000
    C62      C        0.99940    0.02170    0.79370    1.000
    C63      C        0.92530    0.02080    0.85930    1.000
    C64      C        0.40950    0.72420    0.00390    1.000
    C65      C        0.26750    0.68360    0.98520    1.000
    C66      C        0.27360    0.76950    0.96620    1.000
    C67      C        0.18780    0.62440    0.98450    1.000
    C68      C        0.20130    0.83200    0.94250    1.000
    C69      C        0.00830    0.49620    0.20650    1.000
    C70      C        0.94860    0.53900    0.14250    1.000
    C71      C        0.50060    0.52170    0.20630    1.000
    C72      C        0.57470    0.52080    0.14070    1.000
    C73      C        0.37690    0.92060    0.75000    1.000
    C74      C        0.14000    0.02050    0.75000    1.000
    C75      C        0.12310    0.42060    0.25000    1.000
    C76      C        0.36000    0.52050    0.25000    1.000
    C77      C        0.62310    0.07940    0.25000    1.000
    C78      C        0.86000    0.97950    0.25000    1.000
    C79      C        0.87690    0.57940    0.75000    1.000
    C80      C        0.64000    0.47950    0.75000    1.000
    N1       N        0.13610    0.29490    0.47930    1.000
    N2       N        0.14570    0.15580    0.50850    1.000
    N3       N        0.09040    0.02180    0.68040    1.000
    N4       N        0.41760    0.94780    0.67980    1.000
    N5       N        0.36390    0.79490    0.52070    1.000
    N6       N        0.35430    0.65580    0.49150    1.000
    N7       N        0.40960    0.52180    0.31960    1.000
    N8       N        0.08240    0.44780    0.32020    1.000
    N9       N        0.86390    0.70510    0.97930    1.000
    N10      N        0.85430    0.84420    0.00850    1.000
    N11      N        0.90960    0.97820    0.18040    1.000
    N12      N        0.58240    0.05220    0.17980    1.000
    N13      N        0.63610    0.20510    0.02070    1.000
    N14      N        0.64570    0.34420    0.99150    1.000
    N15      N        0.59040    0.47820    0.81960    1.000
    N16      N        0.91760    0.55220    0.82020    1.000
    N17      N        0.86390    0.70510    0.52070    1.000
    N18      N        0.85430    0.84420    0.49150    1.000
    N19      N        0.90960    0.97820    0.31960    1.000
    N20      N        0.58240    0.05220    0.32020    1.000
    N21      N        0.63610    0.20510    0.47930    1.000
    N22      N        0.64570    0.34420    0.50850    1.000
    N23      N        0.59040    0.47820    0.68040    1.000
    N24      N        0.91760    0.55220    0.67980    1.000
    N25      N        0.13610    0.29490    0.02070    1.000
    N26      N        0.14570    0.15580    0.99150    1.000
    N27      N        0.09040    0.02180    0.81960    1.000
    N28      N        0.41760    0.94780    0.82020    1.000
    N29      N        0.36390    0.79490    0.97930    1.000
    N30      N        0.35430    0.65580    0.00850    1.000
    N31      N        0.40960    0.52180    0.18040    1.000
    N32      N        0.08240    0.44780    0.17980    1.000
    O1       O        0.27450    0.40710    0.43680    1.000
    O2       O        0.38160    0.30570    0.43090    1.000
    O3       O        0.39210    0.15070    0.45640    1.000
    O4       O        0.29870    0.05190    0.51130    1.000
    O5       O        0.84200    0.00860    0.65560    1.000
    O6       O        0.95530    0.02920    0.56710    1.000
    O7       O        0.51560    0.04000    0.57090    1.000
    O8       O        0.62870    0.07000    0.65730    1.000
    O9       O        0.22550    0.90710    0.56320    1.000
    O10      O        0.11840    0.80570    0.56910    1.000
    O11      O        0.10790    0.65070    0.54360    1.000
    O12      O        0.20130    0.55190    0.48870    1.000
    O13      O        0.65800    0.50860    0.34440    1.000
    O14      O        0.54470    0.52920    0.43290    1.000
    O15      O        0.98440    0.54000    0.42910    1.000
    O16      O        0.87130    0.57000    0.34270    1.000
    O17      O        0.72550    0.59290    0.93680    1.000
    O18      O        0.61840    0.69430    0.93090    1.000
    O19      O        0.60790    0.84930    0.95640    1.000
    O20      O        0.70130    0.94810    0.01130    1.000
    O21      O        0.15800    0.99140    0.15560    1.000
    O22      O        0.04470    0.97080    0.06710    1.000
    O23      O        0.48440    0.96000    0.07090    1.000
    O24      O        0.37130    0.93000    0.15730    1.000
    O25      O        0.77450    0.09290    0.06320    1.000
    O26      O        0.88160    0.19430    0.06910    1.000
    O27      O        0.89210    0.34930    0.04360    1.000
    O28      O        0.79870    0.44810    0.98870    1.000
    O29      O        0.34200    0.49140    0.84440    1.000
    O30      O        0.45530    0.47080    0.93290    1.000
    O31      O        0.01560    0.46000    0.92910    1.000
    O32      O        0.12870    0.43000    0.84270    1.000
    O33      O        0.72550    0.59290    0.56320    1.000
    O34      O        0.61840    0.69430    0.56910    1.000
    O35      O        0.60790    0.84930    0.54360    1.000
    O36      O        0.70130    0.94810    0.48870    1.000
    O37      O        0.15800    0.99140    0.34440    1.000
    O38      O        0.04470    0.97080    0.43290    1.000
    O39      O        0.48440    0.96000    0.42910    1.000
    O40      O        0.37130    0.93000    0.34270    1.000
    O41      O        0.77450    0.09290    0.43680    1.000
    O42      O        0.88160    0.19430    0.43090    1.000
    O43      O        0.89210    0.34930    0.45640    1.000
    O44      O        0.79870    0.44810    0.51130    1.000
    O45      O        0.34200    0.49140    0.65560    1.000
    O46      O        0.45530    0.47080    0.56710    1.000
    O47      O        0.01560    0.46000    0.57090    1.000
    O48      O        0.12870    0.43000    0.65730    1.000
    O49      O        0.27450    0.40710    0.06320    1.000
    O50      O        0.38160    0.30570    0.06910    1.000
    O51      O        0.39210    0.15070    0.04360    1.000
    O52      O        0.29870    0.05190    0.98870    1.000
    O53      O        0.84200    0.00860    0.84440    1.000
    O54      O        0.95530    0.02920    0.93290    1.000
    O55      O        0.51560    0.04000    0.92910    1.000
    O56      O        0.62870    0.07000    0.84270    1.000
    O57      O        0.22550    0.90710    0.93680    1.000
    O58      O        0.11840    0.80570    0.93090    1.000
    O59      O        0.10790    0.65070    0.95640    1.000
    O60      O        0.20130    0.55190    0.01130    1.000
    O61      O        0.65800    0.50860    0.15560    1.000
    O62      O        0.54470    0.52920    0.06710    1.000
    O63      O        0.98440    0.54000    0.07090    1.000
    O64      O        0.87130    0.57000    0.15730    1.000
