# CIF file generated by openbabel 3.1.0, see https://openbabel.org
data_I
_chemical_name_common 'image0'
_cell_length_a 7.1497
_cell_length_b 9.5284
_cell_length_c 16.0211
_cell_angle_alpha 90
_cell_angle_beta 90
_cell_angle_gamma 90
_space_group_name_H-M_alt 'P 1'
_space_group_name_Hall 'P 1'
loop_
    _symmetry_equiv_pos_as_xyz
    x,y,z
loop_
    _atom_site_label
    _atom_site_type_symbol
    _atom_site_fract_x
    _atom_site_fract_y
    _atom_site_fract_z
    _atom_site_occupancy
    Zn1      Zn       0.23368    0.43528    0.96239    1.000
    C1       C        0.17110    0.51370    0.78800    1.000
    H1       H        0.29500    0.48520    0.78320    1.000
    C2       C        0.08330    0.56960    0.71930    1.000
    N1       N        0.08490    0.49860    0.86170    1.000
    C3       C        0.90060    0.53510    0.86770    1.000
    H2       H        0.83790    0.52240    0.91800    1.000
    C4       C        0.89950    0.60940    0.72670    1.000
    H3       H        0.83780    0.64950    0.68150    1.000
    C5       C        0.80680    0.59020    0.80060    1.000
    H4       H        0.68120    0.61430    0.80530    1.000
    C6       C        0.18910    0.60190    0.64150    1.000
    N2       N        0.17010    0.50210    0.57550    1.000
    H5       H        0.24970    0.50080    0.53530    1.000
    H6       H        0.07890    0.44320    0.57610    1.000
    C7       C        0.33100    0.69830    0.64410    1.000
    H7       H        0.35830    0.73210    0.69720    1.000
    C8       C        0.44560    0.75590    0.57880    1.000
    O1       O        0.42650    0.72150    0.50540    1.000
    O2       O        0.56740    0.84410    0.60290    1.000
    Zn2      Zn       0.26632    0.56472    0.46239    1.000
    C9       C        0.32890    0.48630    0.28800    1.000
    H8       H        0.20500    0.51480    0.28320    1.000
    C10      C        0.41670    0.43040    0.21930    1.000
    N3       N        0.41510    0.50140    0.36170    1.000
    C11      C        0.59940    0.46490    0.36770    1.000
    H9       H        0.66210    0.47760    0.41800    1.000
    C12      C        0.60050    0.39060    0.22670    1.000
    H10      H        0.66220    0.35050    0.18150    1.000
    C13      C        0.69320    0.40980    0.30060    1.000
    H11      H        0.81880    0.38570    0.30530    1.000
    C14      C        0.31090    0.39810    0.14150    1.000
    N4       N        0.32990    0.49790    0.07550    1.000
    H12      H        0.25030    0.49920    0.03530    1.000
    H13      H        0.42110    0.55680    0.07610    1.000
    C15      C        0.16900    0.30170    0.14410    1.000
    H14      H        0.14170    0.26790    0.19720    1.000
    C16      C        0.05440    0.24410    0.07880    1.000
    O3       O        0.07350    0.27850    0.00540    1.000
    O4       O        0.93260    0.15590    0.10290    1.000
    Zn3      Zn       0.76632    0.93528    0.53761    1.000
    C17      C        0.82890    0.01370    0.71200    1.000
    H15      H        0.70500    0.98520    0.71680    1.000
    C18      C        0.91670    0.06960    0.78070    1.000
    N5       N        0.91510    0.99860    0.63830    1.000
    C19      C        0.09940    0.03510    0.63230    1.000
    H16      H        0.16210    0.02240    0.58200    1.000
    C20      C        0.10050    0.10940    0.77330    1.000
    H17      H        0.16220    0.14950    0.81850    1.000
    C21      C        0.19320    0.09020    0.69940    1.000
    H18      H        0.31880    0.11430    0.69470    1.000
    C22      C        0.81090    0.10190    0.85850    1.000
    N6       N        0.82990    0.00210    0.92450    1.000
    H19      H        0.75030    0.00080    0.96470    1.000
    H20      H        0.92110    0.94320    0.92390    1.000
    C23      C        0.66900    0.19830    0.85590    1.000
    H21      H        0.64170    0.23210    0.80280    1.000
    C24      C        0.55440    0.25590    0.92120    1.000
    O5       O        0.57350    0.22150    0.99460    1.000
    O6       O        0.43260    0.34410    0.89710    1.000
    Zn4      Zn       0.73368    0.06472    0.03761    1.000
    C25      C        0.67110    0.98630    0.21200    1.000
    H22      H        0.79500    0.01480    0.21680    1.000
    C26      C        0.58330    0.93040    0.28070    1.000
    N7       N        0.58490    0.00140    0.13830    1.000
    C27      C        0.40060    0.96490    0.13230    1.000
    H23      H        0.33790    0.97760    0.08200    1.000
    C28      C        0.39950    0.89060    0.27330    1.000
    H24      H        0.33780    0.85050    0.31850    1.000
    C29      C        0.30680    0.90980    0.19940    1.000
    H25      H        0.18120    0.88570    0.19470    1.000
    C30      C        0.68910    0.89810    0.35850    1.000
    N8       N        0.67010    0.99790    0.42450    1.000
    H26      H        0.74970    0.99920    0.46470    1.000
    H27      H        0.57890    0.05680    0.42390    1.000
    C31      C        0.83100    0.80170    0.35590    1.000
    H28      H        0.85830    0.76790    0.30280    1.000
    C32      C        0.94560    0.74410    0.42120    1.000
    O7       O        0.92650    0.77850    0.49460    1.000
    O8       O        0.06740    0.65590    0.39710    1.000
