# CIF file generated by openbabel 3.1.0, see https://openbabel.org
data_I
_chemical_name_common 'image0'
_cell_length_a 9.8873
_cell_length_b 14.7768
_cell_length_c 19.2254
_cell_angle_alpha 90
_cell_angle_beta 97.9768
_cell_angle_gamma 90
_space_group_name_H-M_alt 'P 1'
_space_group_name_Hall 'P 1'
loop_
    _symmetry_equiv_pos_as_xyz
    x,y,z
loop_
    _atom_site_label
    _atom_site_type_symbol
    _atom_site_fract_x
    _atom_site_fract_y
    _atom_site_fract_z
    _atom_site_occupancy
    Eu1      Eu       0.40568    0.07387    0.63765    1.000
    Eu2      Eu       0.54303    0.48478    0.66615    1.000
    O1       O        0.47410    0.11130    0.52500    1.000
    O2       O        0.56920    0.05900    0.43440    1.000
    O3       O        0.54900    0.19080    0.69880    1.000
    O4       O        0.61310    0.33580    0.69820    1.000
    O5       O        0.33200    0.22780    0.60450    1.000
    O6       O        0.39060    0.37350    0.60710    1.000
    O7       O        0.63280    0.45130    0.55670    1.000
    O8       O        0.58870    0.44560    0.43930    1.000
    O9       O        0.79260    0.48290    0.68040    1.000
    O10      O        0.98770    0.50570    0.75200    1.000
    O11      O        0.64950    0.52800    0.78270    1.000
    O12      O        0.84340    0.53800    0.85800    1.000
    O13      O        0.37340    0.58510    0.69900    1.000
    O14      O        0.23380    0.62430    0.77540    1.000
    O15      O        0.39590    0.41940    0.75380    1.000
    O16      O        0.24050    0.45460    0.82440    1.000
    C1       C        0.51180    0.04960    0.48790    1.000
    C2       C        0.53380    0.27100    0.67880    1.000
    C3       C        0.40640    0.29300    0.62490    1.000
    C4       C        0.56400    0.47000    0.49870    1.000
    C5       C        0.85960    0.50360    0.73840    1.000
    C6       C        0.77620    0.52670    0.79890    1.000
    C7       C        0.30620    0.56950    0.74830    1.000
    C8       C        0.31450    0.47150    0.77820    1.000
    Eu3      Eu       0.09432    0.57387    0.86235    1.000
    Eu4      Eu       0.95697    0.98478    0.83385    1.000
    O17      O        0.02590    0.61130    0.97500    1.000
    O18      O        0.93080    0.55900    0.06560    1.000
    O19      O        0.95100    0.69080    0.80120    1.000
    O20      O        0.88690    0.83580    0.80180    1.000
    O21      O        0.16800    0.72780    0.89550    1.000
    O22      O        0.10940    0.87350    0.89290    1.000
    O23      O        0.86720    0.95130    0.94330    1.000
    O24      O        0.91130    0.94560    0.06070    1.000
    O25      O        0.70740    0.98290    0.81960    1.000
    O26      O        0.51230    0.00570    0.74800    1.000
    O27      O        0.85050    0.02800    0.71730    1.000
    O28      O        0.65660    0.03800    0.64200    1.000
    O29      O        0.12660    0.08510    0.80100    1.000
    O30      O        0.26620    0.12430    0.72460    1.000
    O31      O        0.10410    0.91940    0.74620    1.000
    O32      O        0.25950    0.95460    0.67560    1.000
    C9       C        0.98820    0.54960    0.01210    1.000
    C10      C        0.96620    0.77100    0.82120    1.000
    C11      C        0.09360    0.79300    0.87510    1.000
    C12      C        0.93600    0.97000    0.00130    1.000
    C13      C        0.64040    0.00360    0.76160    1.000
    C14      C        0.72380    0.02670    0.70110    1.000
    C15      C        0.19380    0.06950    0.75170    1.000
    C16      C        0.18550    0.97150    0.72180    1.000
    Eu5      Eu       0.59432    0.92613    0.36235    1.000
    Eu6      Eu       0.45697    0.51522    0.33385    1.000
    O33      O        0.52590    0.88870    0.47500    1.000
    O34      O        0.43080    0.94100    0.56560    1.000
    O35      O        0.45100    0.80920    0.30120    1.000
    O36      O        0.38690    0.66420    0.30180    1.000
    O37      O        0.66800    0.77220    0.39550    1.000
    O38      O        0.60940    0.62650    0.39290    1.000
    O39      O        0.36720    0.54870    0.44330    1.000
    O40      O        0.41130    0.55440    0.56070    1.000
    O41      O        0.20740    0.51710    0.31960    1.000
    O42      O        0.01230    0.49430    0.24800    1.000
    O43      O        0.35050    0.47200    0.21730    1.000
    O44      O        0.15660    0.46200    0.14200    1.000
    O45      O        0.62660    0.41490    0.30100    1.000
    O46      O        0.76620    0.37570    0.22460    1.000
    O47      O        0.60410    0.58060    0.24620    1.000
    O48      O        0.75950    0.54540    0.17560    1.000
    C17      C        0.48820    0.95040    0.51210    1.000
    C18      C        0.46620    0.72900    0.32120    1.000
    C19      C        0.59360    0.70700    0.37510    1.000
    C20      C        0.43600    0.53000    0.50130    1.000
    C21      C        0.14040    0.49640    0.26160    1.000
    C22      C        0.22380    0.47330    0.20110    1.000
    C23      C        0.69380    0.43050    0.25170    1.000
    C24      C        0.68550    0.52850    0.22180    1.000
    Eu7      Eu       0.90568    0.42613    0.13765    1.000
    Eu8      Eu       0.04303    0.01522    0.16615    1.000
    O49      O        0.97410    0.38870    0.02500    1.000
    O50      O        0.06920    0.44100    0.93440    1.000
    O51      O        0.04900    0.30920    0.19880    1.000
    O52      O        0.11310    0.16420    0.19820    1.000
    O53      O        0.83200    0.27220    0.10450    1.000
    O54      O        0.89060    0.12650    0.10710    1.000
    O55      O        0.13280    0.04870    0.05670    1.000
    O56      O        0.08870    0.05440    0.93930    1.000
    O57      O        0.29260    0.01710    0.18040    1.000
    O58      O        0.48770    0.99430    0.25200    1.000
    O59      O        0.14950    0.97200    0.28270    1.000
    O60      O        0.34340    0.96200    0.35800    1.000
    O61      O        0.87340    0.91490    0.19900    1.000
    O62      O        0.73380    0.87570    0.27540    1.000
    O63      O        0.89590    0.08060    0.25380    1.000
    O64      O        0.74050    0.04540    0.32440    1.000
    C25      C        0.01180    0.45040    0.98790    1.000
    C26      C        0.03380    0.22900    0.17880    1.000
    C27      C        0.90640    0.20700    0.12490    1.000
    C28      C        0.06400    0.03000    0.99870    1.000
    C29      C        0.35960    0.99640    0.23840    1.000
    C30      C        0.27620    0.97330    0.29890    1.000
    C31      C        0.80620    0.93050    0.24830    1.000
    C32      C        0.81450    0.02850    0.27820    1.000
