# CIF file generated by openbabel 3.1.0, see https://openbabel.org
data_I
_chemical_name_common 'image0'
_cell_length_a 23.5619
_cell_length_b 15.6714
_cell_length_c 16.1158
_cell_angle_alpha 90
_cell_angle_beta 124.238
_cell_angle_gamma 90
_space_group_name_H-M_alt 'P 1'
_space_group_name_Hall 'P 1'
loop_
    _symmetry_equiv_pos_as_xyz
    x,y,z
loop_
    _atom_site_label
    _atom_site_type_symbol
    _atom_site_fract_x
    _atom_site_fract_y
    _atom_site_fract_z
    _atom_site_occupancy
    Gd1      Gd       0.68970    0.67213    0.87776    1.000
    C1       C        0.40250    0.77590    0.47110    1.000
    C2       C        0.45560    0.74140    0.56120    1.000
    H1       H        0.44700    0.71970    0.60820    1.000
    C3       C        0.52150    0.73870    0.58230    1.000
    C4       C        0.53430    0.77230    0.51420    1.000
    H2       H        0.57920    0.77010    0.52810    1.000
    C5       C        0.48140    0.80870    0.42670    1.000
    C6       C        0.41520    0.81080    0.40410    1.000
    H3       H        0.37900    0.83600    0.34340    1.000
    C7       C        0.45360    0.90530    0.29790    1.000
    C8       C        0.39920    0.88960    0.19910    1.000
    C9       C        0.35770    0.95560    0.13810    1.000
    H4       H        0.32110    0.94430    0.07070    1.000
    C10      C        0.36930    0.03830    0.17480    1.000
    C11      C        0.42480    0.05400    0.27250    1.000
    H5       H        0.43400    0.11060    0.29800    1.000
    C12      C        0.46670    0.98780    0.33300    1.000
    H6       H        0.50480    0.99950    0.39930    1.000
    C13      C        0.32970    0.77660    0.44210    1.000
    C14      C        0.58000    0.70300    0.67950    1.000
    C15      C        0.32150    0.10940    0.11100    1.000
    N1       N        0.38320    0.80380    0.15620    1.000
    O1       O        0.28590    0.81640    0.36470    1.000
    O2       O        0.31456    0.73732    0.49550    1.000
    O3       O        0.56901    0.67856    0.74440    1.000
    O4       O        0.63855    0.69990    0.69590    1.000
    O5       O        0.40560    0.74240    0.21200    1.000
    O6       O        0.34740    0.79740    0.06420    1.000
    O7       O        0.27821    0.09352    0.01960    1.000
    O8       O        0.32951    0.17843    0.15490    1.000
    O9       O        0.49758    0.84220    0.36260    1.000
    Gd2      Gd       0.18970    0.17213    0.87776    1.000
    C16      C        0.90250    0.27590    0.47110    1.000
    C17      C        0.95560    0.24140    0.56120    1.000
    H7       H        0.94700    0.21970    0.60820    1.000
    C18      C        0.02150    0.23870    0.58230    1.000
    C19      C        0.03430    0.27230    0.51420    1.000
    H8       H        0.07920    0.27010    0.52810    1.000
    C20      C        0.98140    0.30870    0.42670    1.000
    C21      C        0.91520    0.31080    0.40410    1.000
    H9       H        0.87900    0.33600    0.34340    1.000
    C22      C        0.95360    0.40530    0.29790    1.000
    C23      C        0.89920    0.38960    0.19910    1.000
    C24      C        0.85770    0.45560    0.13810    1.000
    H10      H        0.82110    0.44430    0.07070    1.000
    C25      C        0.86930    0.53830    0.17480    1.000
    C26      C        0.92480    0.55400    0.27250    1.000
    H11      H        0.93400    0.61060    0.29800    1.000
    C27      C        0.96670    0.48780    0.33300    1.000
    H12      H        0.00480    0.49950    0.39930    1.000
    C28      C        0.82970    0.27660    0.44210    1.000
    C29      C        0.08000    0.20300    0.67950    1.000
    C30      C        0.82150    0.60940    0.11100    1.000
    N2       N        0.88320    0.30380    0.15620    1.000
    O10      O        0.78590    0.31640    0.36470    1.000
    O11      O        0.81456    0.23732    0.49550    1.000
    O12      O        0.06901    0.17856    0.74440    1.000
    O13      O        0.13855    0.19990    0.69590    1.000
    O14      O        0.90560    0.24240    0.21200    1.000
    O15      O        0.84740    0.29740    0.06420    1.000
    O16      O        0.77821    0.59352    0.01960    1.000
    O17      O        0.82951    0.67843    0.15490    1.000
    O18      O        0.99758    0.34220    0.36260    1.000
    Gd3      Gd       0.31030    0.67213    0.62224    1.000
    C31      C        0.59750    0.77590    0.02890    1.000
    C32      C        0.54440    0.74140    0.93880    1.000
    H13      H        0.55300    0.71970    0.89180    1.000
    C33      C        0.47850    0.73870    0.91770    1.000
    C34      C        0.46570    0.77230    0.98580    1.000
    H14      H        0.42080    0.77010    0.97190    1.000
    C35      C        0.51860    0.80870    0.07330    1.000
    C36      C        0.58480    0.81080    0.09590    1.000
    H15      H        0.62100    0.83600    0.15660    1.000
    C37      C        0.54640    0.90530    0.20210    1.000
    C38      C        0.60080    0.88960    0.30090    1.000
    C39      C        0.64230    0.95560    0.36190    1.000
    H16      H        0.67890    0.94430    0.42930    1.000
    C40      C        0.63070    0.03830    0.32520    1.000
    C41      C        0.57520    0.05400    0.22750    1.000
    H17      H        0.56600    0.11060    0.20200    1.000
    C42      C        0.53330    0.98780    0.16700    1.000
    H18      H        0.49520    0.99950    0.10070    1.000
    C43      C        0.67030    0.77660    0.05790    1.000
    C44      C        0.42000    0.70300    0.82050    1.000
    C45      C        0.67850    0.10940    0.38900    1.000
    N3       N        0.61680    0.80380    0.34380    1.000
    O19      O        0.71410    0.81640    0.13530    1.000
    O20      O        0.68544    0.73732    0.00450    1.000
    O21      O        0.43099    0.67856    0.75560    1.000
    O22      O        0.36145    0.69990    0.80410    1.000
    O23      O        0.59440    0.74240    0.28800    1.000
    O24      O        0.65260    0.79740    0.43580    1.000
    O25      O        0.72179    0.09352    0.48040    1.000
    O26      O        0.67049    0.17843    0.34510    1.000
    O27      O        0.50242    0.84220    0.13740    1.000
    Gd4      Gd       0.81030    0.17213    0.62224    1.000
    C46      C        0.09750    0.27590    0.02890    1.000
    C47      C        0.04440    0.24140    0.93880    1.000
    H19      H        0.05300    0.21970    0.89180    1.000
    C48      C        0.97850    0.23870    0.91770    1.000
    C49      C        0.96570    0.27230    0.98580    1.000
    H20      H        0.92080    0.27010    0.97190    1.000
    C50      C        0.01860    0.30870    0.07330    1.000
    C51      C        0.08480    0.31080    0.09590    1.000
    H21      H        0.12100    0.33600    0.15660    1.000
    C52      C        0.04640    0.40530    0.20210    1.000
    C53      C        0.10080    0.38960    0.30090    1.000
    C54      C        0.14230    0.45560    0.36190    1.000
    H22      H        0.17890    0.44430    0.42930    1.000
    C55      C        0.13070    0.53830    0.32520    1.000
    C56      C        0.07520    0.55400    0.22750    1.000
    H23      H        0.06600    0.61060    0.20200    1.000
    C57      C        0.03330    0.48780    0.16700    1.000
    H24      H        0.99520    0.49950    0.10070    1.000
    C58      C        0.17030    0.27660    0.05790    1.000
    C59      C        0.92000    0.20300    0.82050    1.000
    C60      C        0.17850    0.60940    0.38900    1.000
    N4       N        0.11680    0.30380    0.34380    1.000
    O28      O        0.21410    0.31640    0.13530    1.000
    O29      O        0.18544    0.23732    0.00450    1.000
    O30      O        0.93099    0.17856    0.75560    1.000
    O31      O        0.86145    0.19990    0.80410    1.000
    O32      O        0.09440    0.24240    0.28800    1.000
    O33      O        0.15260    0.29740    0.43580    1.000
    O34      O        0.22179    0.59352    0.48040    1.000
    O35      O        0.17049    0.67843    0.34510    1.000
    O36      O        0.00242    0.34220    0.13740    1.000
    Gd5      Gd       0.31030    0.32787    0.12224    1.000
    C61      C        0.59750    0.22410    0.52890    1.000
    C62      C        0.54440    0.25860    0.43880    1.000
    H25      H        0.55300    0.28030    0.39180    1.000
    C63      C        0.47850    0.26130    0.41770    1.000
    C64      C        0.46570    0.22770    0.48580    1.000
    H26      H        0.42080    0.22990    0.47190    1.000
    C65      C        0.51860    0.19130    0.57330    1.000
    C66      C        0.58480    0.18920    0.59590    1.000
    H27      H        0.62100    0.16400    0.65660    1.000
    C67      C        0.54640    0.09470    0.70210    1.000
    C68      C        0.60080    0.11040    0.80090    1.000
    C69      C        0.64230    0.04440    0.86190    1.000
    H28      H        0.67890    0.05570    0.92930    1.000
    C70      C        0.63070    0.96170    0.82520    1.000
    C71      C        0.57520    0.94600    0.72750    1.000
    H29      H        0.56600    0.88940    0.70200    1.000
    C72      C        0.53330    0.01220    0.66700    1.000
    H30      H        0.49520    0.00050    0.60070    1.000
    C73      C        0.67030    0.22340    0.55790    1.000
    C74      C        0.42000    0.29700    0.32050    1.000
    C75      C        0.67850    0.89060    0.88900    1.000
    N5       N        0.61680    0.19620    0.84380    1.000
    O37      O        0.71410    0.18360    0.63530    1.000
    O38      O        0.68544    0.26268    0.50450    1.000
    O39      O        0.43099    0.32144    0.25560    1.000
    O40      O        0.36145    0.30010    0.30410    1.000
    O41      O        0.59440    0.25760    0.78800    1.000
    O42      O        0.65260    0.20260    0.93580    1.000
    O43      O        0.72179    0.90648    0.98040    1.000
    O44      O        0.67049    0.82157    0.84510    1.000
    O45      O        0.50242    0.15780    0.63740    1.000
    Gd6      Gd       0.81030    0.82787    0.12224    1.000
    C76      C        0.09750    0.72410    0.52890    1.000
    C77      C        0.04440    0.75860    0.43880    1.000
    H31      H        0.05300    0.78030    0.39180    1.000
    C78      C        0.97850    0.76130    0.41770    1.000
    C79      C        0.96570    0.72770    0.48580    1.000
    H32      H        0.92080    0.72990    0.47190    1.000
    C80      C        0.01860    0.69130    0.57330    1.000
    C81      C        0.08480    0.68920    0.59590    1.000
    H33      H        0.12100    0.66400    0.65660    1.000
    C82      C        0.04640    0.59470    0.70210    1.000
    C83      C        0.10080    0.61040    0.80090    1.000
    C84      C        0.14230    0.54440    0.86190    1.000
    H34      H        0.17890    0.55570    0.92930    1.000
    C85      C        0.13070    0.46170    0.82520    1.000
    C86      C        0.07520    0.44600    0.72750    1.000
    H35      H        0.06600    0.38940    0.70200    1.000
    C87      C        0.03330    0.51220    0.66700    1.000
    H36      H        0.99520    0.50050    0.60070    1.000
    C88      C        0.17030    0.72340    0.55790    1.000
    C89      C        0.92000    0.79700    0.32050    1.000
    C90      C        0.17850    0.39060    0.88900    1.000
    N6       N        0.11680    0.69620    0.84380    1.000
    O46      O        0.21410    0.68360    0.63530    1.000
    O47      O        0.18544    0.76268    0.50450    1.000
    O48      O        0.93099    0.82144    0.25560    1.000
    O49      O        0.86145    0.80010    0.30410    1.000
    O50      O        0.09440    0.75760    0.78800    1.000
    O51      O        0.15260    0.70260    0.93580    1.000
    O52      O        0.22179    0.40648    0.98040    1.000
    O53      O        0.17049    0.32157    0.84510    1.000
    O54      O        0.00242    0.65780    0.63740    1.000
    Gd7      Gd       0.68970    0.32787    0.37776    1.000
    C91      C        0.40250    0.22410    0.97110    1.000
    C92      C        0.45560    0.25860    0.06120    1.000
    H37      H        0.44700    0.28030    0.10820    1.000
    C93      C        0.52150    0.26130    0.08230    1.000
    C94      C        0.53430    0.22770    0.01420    1.000
    H38      H        0.57920    0.22990    0.02810    1.000
    C95      C        0.48140    0.19130    0.92670    1.000
    C96      C        0.41520    0.18920    0.90410    1.000
    H39      H        0.37900    0.16400    0.84340    1.000
    C97      C        0.45360    0.09470    0.79790    1.000
    C98      C        0.39920    0.11040    0.69910    1.000
    C99      C        0.35770    0.04440    0.63810    1.000
    H40      H        0.32110    0.05570    0.57070    1.000
    C100     C        0.36930    0.96170    0.67480    1.000
    C101     C        0.42480    0.94600    0.77250    1.000
    H41      H        0.43400    0.88940    0.79800    1.000
    C102     C        0.46670    0.01220    0.83300    1.000
    H42      H        0.50480    0.00050    0.89930    1.000
    C103     C        0.32970    0.22340    0.94210    1.000
    C104     C        0.58000    0.29700    0.17950    1.000
    C105     C        0.32150    0.89060    0.61100    1.000
    N7       N        0.38320    0.19620    0.65620    1.000
    O55      O        0.28590    0.18360    0.86470    1.000
    O56      O        0.31456    0.26268    0.99550    1.000
    O57      O        0.56901    0.32144    0.24440    1.000
    O58      O        0.63855    0.30010    0.19590    1.000
    O59      O        0.40560    0.25760    0.71200    1.000
    O60      O        0.34740    0.20260    0.56420    1.000
    O61      O        0.27821    0.90648    0.51960    1.000
    O62      O        0.32951    0.82157    0.65490    1.000
    O63      O        0.49758    0.15780    0.86260    1.000
    Gd8      Gd       0.18970    0.82787    0.37776    1.000
    C106     C        0.90250    0.72410    0.97110    1.000
    C107     C        0.95560    0.75860    0.06120    1.000
    H43      H        0.94700    0.78030    0.10820    1.000
    C108     C        0.02150    0.76130    0.08230    1.000
    C109     C        0.03430    0.72770    0.01420    1.000
    H44      H        0.07920    0.72990    0.02810    1.000
    C110     C        0.98140    0.69130    0.92670    1.000
    C111     C        0.91520    0.68920    0.90410    1.000
    H45      H        0.87900    0.66400    0.84340    1.000
    C112     C        0.95360    0.59470    0.79790    1.000
    C113     C        0.89920    0.61040    0.69910    1.000
    C114     C        0.85770    0.54440    0.63810    1.000
    H46      H        0.82110    0.55570    0.57070    1.000
    C115     C        0.86930    0.46170    0.67480    1.000
    C116     C        0.92480    0.44600    0.77250    1.000
    H47      H        0.93400    0.38940    0.79800    1.000
    C117     C        0.96670    0.51220    0.83300    1.000
    H48      H        0.00480    0.50050    0.89930    1.000
    C118     C        0.82970    0.72340    0.94210    1.000
    C119     C        0.08000    0.79700    0.17950    1.000
    C120     C        0.82150    0.39060    0.61100    1.000
    N8       N        0.88320    0.69620    0.65620    1.000
    O64      O        0.78590    0.68360    0.86470    1.000
    O65      O        0.81456    0.76268    0.99550    1.000
    O66      O        0.06901    0.82144    0.24440    1.000
    O67      O        0.13855    0.80010    0.19590    1.000
    O68      O        0.90560    0.75760    0.71200    1.000
    O69      O        0.84740    0.70260    0.56420    1.000
    O70      O        0.77821    0.40648    0.51960    1.000
    O71      O        0.82951    0.32157    0.65490    1.000
    O72      O        0.99758    0.65780    0.86260    1.000
