# CIF file generated by openbabel 3.1.0, see https://openbabel.org
data_I
_chemical_name_common 'XAMLUS_clean'
_cell_length_a 8.921
_cell_length_b 11.935
_cell_length_c 13.274
_cell_angle_alpha 90
_cell_angle_beta 90
_cell_angle_gamma 90
_space_group_name_H-M_alt 'P 1'
_space_group_name_Hall 'P 1'
loop_
    _symmetry_equiv_pos_as_xyz
    x,y,z
loop_
    _atom_site_label
    _atom_site_type_symbol
    _atom_site_fract_x
    _atom_site_fract_y
    _atom_site_fract_z
    _atom_site_occupancy
    Ca1      Ca       0.00000    0.76175    0.75000    1.000
    Ca2      Ca       0.50000    0.73825    0.25000    1.000
    Ca3      Ca       0.00000    0.23825    0.25000    1.000
    Ca4      Ca       0.50000    0.26175    0.75000    1.000
    Ni1      Ni       0.50000    0.50000    0.00000    1.000
    Ni2      Ni       0.00000    0.00000    0.50000    1.000
    Ni3      Ni       0.50000    0.50000    0.50000    1.000
    Ni4      Ni       0.00000    0.00000    0.00000    1.000
    H1       H        0.75100    0.78200    0.93800    1.000
    H2       H        0.60100    0.74100    0.89500    1.000
    H3       H        0.74900    0.71800    0.43800    1.000
    H4       H        0.89900    0.75900    0.39500    1.000
    H5       H        0.24900    0.78200    0.56200    1.000
    H6       H        0.39900    0.74100    0.60500    1.000
    H7       H        0.25100    0.71800    0.06200    1.000
    H8       H        0.10100    0.75900    0.10500    1.000
    H9       H        0.24900    0.21800    0.06200    1.000
    H10      H        0.39900    0.25900    0.10500    1.000
    H11      H        0.25100    0.28200    0.56200    1.000
    H12      H        0.10100    0.24100    0.60500    1.000
    H13      H        0.75100    0.21800    0.43800    1.000
    H14      H        0.60100    0.25900    0.39500    1.000
    H15      H        0.74900    0.28200    0.93800    1.000
    H16      H        0.89900    0.24100    0.89500    1.000
    C1       C        0.75310    0.61790    0.90270    1.000
    C2       C        0.68410    0.72560    0.94200    1.000
    C3       C        0.62210    0.72240    0.04780    1.000
    C4       C        0.74690    0.88210    0.40270    1.000
    C5       C        0.81590    0.77440    0.44200    1.000
    C6       C        0.87790    0.77760    0.54780    1.000
    C7       C        0.24690    0.61790    0.59730    1.000
    C8       C        0.31590    0.72560    0.55800    1.000
    C9       C        0.37790    0.72240    0.45220    1.000
    C10      C        0.25310    0.88210    0.09730    1.000
    C11      C        0.18410    0.77440    0.05800    1.000
    C12      C        0.12210    0.77760    0.95220    1.000
    C13      C        0.24690    0.38210    0.09730    1.000
    C14      C        0.31590    0.27440    0.05800    1.000
    C15      C        0.37790    0.27760    0.95220    1.000
    C16      C        0.25310    0.11790    0.59730    1.000
    C17      C        0.18410    0.22560    0.55800    1.000
    C18      C        0.12210    0.22240    0.45220    1.000
    C19      C        0.75310    0.38210    0.40270    1.000
    C20      C        0.68410    0.27440    0.44200    1.000
    C21      C        0.62210    0.27760    0.54780    1.000
    C22      C        0.74690    0.11790    0.90270    1.000
    C23      C        0.81590    0.22560    0.94200    1.000
    C24      C        0.87790    0.22240    0.04780    1.000
    O1       O        0.85450    0.62620    0.83860    1.000
    O2       O        0.70730    0.52420    0.93480    1.000
    O3       O        0.52300    0.64980    0.07220    1.000
    O4       O        0.83620    0.70580    0.61020    1.000
    O5       O        0.64550    0.87380    0.33860    1.000
    O6       O        0.79270    0.97580    0.43480    1.000
    O7       O        0.97700    0.85020    0.57220    1.000
    O8       O        0.66380    0.79420    0.11020    1.000
    O9       O        0.14550    0.62620    0.66140    1.000
    O10      O        0.29270    0.52420    0.56520    1.000
    O11      O        0.47700    0.64980    0.42780    1.000
    O12      O        0.16380    0.70580    0.88980    1.000
    O13      O        0.35450    0.87380    0.16140    1.000
    O14      O        0.20730    0.97580    0.06520    1.000
    O15      O        0.02300    0.85020    0.92780    1.000
    O16      O        0.33620    0.79420    0.38980    1.000
    O17      O        0.14550    0.37380    0.16140    1.000
    O18      O        0.29270    0.47580    0.06520    1.000
    O19      O        0.47700    0.35020    0.92780    1.000
    O20      O        0.16380    0.29420    0.38980    1.000
    O21      O        0.35450    0.12620    0.66140    1.000
    O22      O        0.20730    0.02420    0.56520    1.000
    O23      O        0.02300    0.14980    0.42780    1.000
    O24      O        0.33620    0.20580    0.88980    1.000
    O25      O        0.85450    0.37380    0.33860    1.000
    O26      O        0.70730    0.47580    0.43480    1.000
    O27      O        0.52300    0.35020    0.57220    1.000
    O28      O        0.83620    0.29420    0.11020    1.000
    O29      O        0.64550    0.12620    0.83860    1.000
    O30      O        0.79270    0.02420    0.93480    1.000
    O31      O        0.97700    0.14980    0.07220    1.000
    O32      O        0.66380    0.20580    0.61020    1.000
