# CIF file generated by openbabel 3.1.0, see https://openbabel.org
data_I
_chemical_name_common 'image0'
_cell_length_a 15.331
_cell_length_b 32.5
_cell_length_c 10.05
_cell_angle_alpha 90
_cell_angle_beta 107.451
_cell_angle_gamma 90
_space_group_name_H-M_alt 'P 1'
_space_group_name_Hall 'P 1'
loop_
    _symmetry_equiv_pos_as_xyz
    x,y,z
loop_
    _atom_site_label
    _atom_site_type_symbol
    _atom_site_fract_x
    _atom_site_fract_y
    _atom_site_fract_z
    _atom_site_occupancy
    Cu1      Cu       0.41706    0.71618    0.73480    1.000
    Cu2      Cu       0.48896    0.71437    0.47274    1.000
    Cu3      Cu       0.34304    0.77326    0.49804    1.000
    O1       O        0.37873    0.71549    0.53100    1.000
    H1       H        0.33160    0.69530    0.48640    1.000
    O2       O        0.46820    0.65718    0.73560    1.000
    O3       O        0.53138    0.66040    0.55900    1.000
    O4       O        0.28992    0.72606    0.74470    1.000
    O5       O        0.23321    0.76516    0.55260    1.000
    O6       O        0.45313    0.72600    0.93340    1.000
    H2       H        0.50020    0.70680    0.98620    1.000
    O7       O        0.96610    0.84460    0.53160    1.000
    O8       O        0.85430    0.81160    0.54580    1.000
    O9       O        0.99230    0.81626    0.93310    1.000
    O10      O        0.88250    0.84809    0.96890    1.000
    O11      O        0.77420    0.50510    0.71740    1.000
    O12      O        0.69020    0.53530    0.47340    1.000
    O13      O        0.72690    0.51624    0.99800    1.000
    O14      O        0.67770    0.47230    0.13870    1.000
    O15      O        0.59540    0.78182    0.91110    1.000
    O16      O        0.54154    0.74079    0.72250    1.000
    O17      O        0.60190    0.31531    0.75660    1.000
    O18      O        0.66420    0.33136    0.98200    1.000
    C1       C        0.51110    0.64287    0.65870    1.000
    C2       C        0.54160    0.59885    0.68530    1.000
    C3       C        0.50070    0.57399    0.76100    1.000
    H3       H        0.45620    0.58470    0.79670    1.000
    C4       C        0.52610    0.53305    0.78360    1.000
    H4       H        0.49520    0.51640    0.82980    1.000
    C5       C        0.59560    0.51613    0.74000    1.000
    C6       C        0.63290    0.54145    0.66520    1.000
    C7       C        0.60780    0.58192    0.63590    1.000
    H5       H        0.63560    0.59770    0.58280    1.000
    C8       C        0.61720    0.47156    0.76860    1.000
    C9       C        0.65800    0.45538    0.90090    1.000
    C10      C        0.66400    0.41353    0.92840    1.000
    H6       H        0.69130    0.40400    0.01860    1.000
    C11      C        0.62960    0.38620    0.82170    1.000
    C12      C        0.59130    0.40146    0.68990    1.000
    H7       H        0.56950    0.38330    0.61580    1.000
    C13      C        0.58440    0.44351    0.66550    1.000
    H8       H        0.55640    0.45280    0.57530    1.000
    C14      C        0.63170    0.34080    0.85220    1.000
    C15      C        0.22610    0.74637    0.65890    1.000
    C16      C        0.13610    0.74888    0.68550    1.000
    C17      C        0.07900    0.78216    0.63310    1.000
    H9       H        0.09730    0.80240    0.58180    1.000
    C18      C        0.99660    0.78515    0.65690    1.000
    C19      C        0.96430    0.75626    0.73310    1.000
    C20      C        0.02120    0.72226    0.78050    1.000
    H10      H        0.00180    0.70150    0.82870    1.000
    C21      C        0.10610    0.71862    0.75740    1.000
    H11      H        0.14260    0.69570    0.79060    1.000
    C22      C        0.87430    0.75767    0.76250    1.000
    C23      C        0.81250    0.72680    0.71100    1.000
    H12      H        0.83020    0.70480    0.66580    1.000
    C24      C        0.72440    0.72701    0.72330    1.000
    H13      H        0.68350    0.70610    0.68390    1.000
    C25      C        0.69870    0.75867    0.79470    1.000
    C26      C        0.76120    0.78924    0.85640    1.000
    H14      H        0.74500    0.81020    0.90750    1.000
    C27      C        0.84750    0.78816    0.84090    1.000
    C28      C        0.60350    0.76052    0.80910    1.000
    N1       N        0.70790    0.52720    0.61280    1.000
    N2       N        0.93790    0.82003    0.59190    1.000
    N3       N        0.91180    0.82016    0.91180    1.000
    N4       N        0.69050    0.48340    0.02240    1.000
    O19      O        0.90300    0.84470    0.66810    1.000
    O20      O        0.74450    0.49480    0.63500    1.000
    O21      O        0.75800    0.55260    0.57040    1.000
    O22      O        0.76510    0.47120    0.10500    1.000
    Cu4      Cu       0.58294    0.21618    0.76520    1.000
    Cu5      Cu       0.51104    0.21437    0.02726    1.000
    Cu6      Cu       0.65696    0.27326    0.00196    1.000
    O23      O        0.62127    0.21549    0.96900    1.000
    H15      H        0.66840    0.19530    0.01360    1.000
    O24      O        0.53180    0.15718    0.76440    1.000
    O25      O        0.46862    0.16040    0.94100    1.000
    O26      O        0.71008    0.22606    0.75530    1.000
    O27      O        0.76679    0.26516    0.94740    1.000
    O28      O        0.54687    0.22600    0.56660    1.000
    H16      H        0.49980    0.20680    0.51380    1.000
    O29      O        0.03390    0.34460    0.96840    1.000
    O30      O        0.14570    0.31160    0.95420    1.000
    O31      O        0.00770    0.31626    0.56690    1.000
    O32      O        0.11750    0.34809    0.53110    1.000
    O33      O        0.22580    0.00510    0.78260    1.000
    O34      O        0.30980    0.03530    0.02660    1.000
    O35      O        0.27310    0.01624    0.50200    1.000
    O36      O        0.32230    0.97230    0.36130    1.000
    O37      O        0.40460    0.28182    0.58890    1.000
    O38      O        0.45846    0.24079    0.77750    1.000
    O39      O        0.39810    0.81531    0.74340    1.000
    O40      O        0.33580    0.83136    0.51800    1.000
    C29      C        0.48890    0.14287    0.84130    1.000
    C30      C        0.45840    0.09885    0.81470    1.000
    C31      C        0.49930    0.07399    0.73900    1.000
    H17      H        0.54380    0.08470    0.70330    1.000
    C32      C        0.47390    0.03305    0.71640    1.000
    H18      H        0.50480    0.01640    0.67020    1.000
    C33      C        0.40440    0.01613    0.76000    1.000
    C34      C        0.36710    0.04145    0.83480    1.000
    C35      C        0.39220    0.08192    0.86410    1.000
    H19      H        0.36440    0.09770    0.91720    1.000
    C36      C        0.38280    0.97156    0.73140    1.000
    C37      C        0.34200    0.95538    0.59910    1.000
    C38      C        0.33600    0.91353    0.57160    1.000
    H20      H        0.30870    0.90400    0.48140    1.000
    C39      C        0.37040    0.88620    0.67830    1.000
    C40      C        0.40870    0.90146    0.81010    1.000
    H21      H        0.43050    0.88330    0.88420    1.000
    C41      C        0.41560    0.94351    0.83450    1.000
    H22      H        0.44360    0.95280    0.92470    1.000
    C42      C        0.36830    0.84080    0.64780    1.000
    C43      C        0.77390    0.24637    0.84110    1.000
    C44      C        0.86390    0.24888    0.81450    1.000
    C45      C        0.92100    0.28216    0.86690    1.000
    H23      H        0.90270    0.30240    0.91820    1.000
    C46      C        0.00340    0.28515    0.84310    1.000
    C47      C        0.03570    0.25626    0.76690    1.000
    C48      C        0.97880    0.22226    0.71950    1.000
    H24      H        0.99820    0.20150    0.67130    1.000
    C49      C        0.89390    0.21862    0.74260    1.000
    H25      H        0.85740    0.19570    0.70940    1.000
    C50      C        0.12570    0.25767    0.73750    1.000
    C51      C        0.18750    0.22680    0.78900    1.000
    H26      H        0.16980    0.20480    0.83420    1.000
    C52      C        0.27560    0.22701    0.77670    1.000
    H27      H        0.31650    0.20610    0.81610    1.000
    C53      C        0.30130    0.25867    0.70530    1.000
    C54      C        0.23880    0.28924    0.64360    1.000
    H28      H        0.25500    0.31020    0.59250    1.000
    C55      C        0.15250    0.28816    0.65910    1.000
    C56      C        0.39650    0.26052    0.69090    1.000
    N5       N        0.29210    0.02720    0.88720    1.000
    N6       N        0.06210    0.32003    0.90810    1.000
    N7       N        0.08820    0.32016    0.58820    1.000
    N8       N        0.30950    0.98340    0.47760    1.000
    O41      O        0.09700    0.34470    0.83190    1.000
    O42      O        0.25550    0.99480    0.86500    1.000
    O43      O        0.24200    0.05260    0.92960    1.000
    O44      O        0.23490    0.97120    0.39500    1.000
    Cu7      Cu       0.58294    0.28382    0.26520    1.000
    Cu8      Cu       0.51104    0.28563    0.52726    1.000
    Cu9      Cu       0.65696    0.22674    0.50196    1.000
    O45      O        0.62127    0.28451    0.46900    1.000
    H29      H        0.66840    0.30470    0.51360    1.000
    O46      O        0.53180    0.34282    0.26440    1.000
    O47      O        0.46862    0.33960    0.44100    1.000
    O48      O        0.71008    0.27394    0.25530    1.000
    O49      O        0.76679    0.23484    0.44740    1.000
    O50      O        0.54687    0.27400    0.06660    1.000
    H30      H        0.49980    0.29320    0.01380    1.000
    O51      O        0.03390    0.15540    0.46840    1.000
    O52      O        0.14570    0.18840    0.45420    1.000
    O53      O        0.00770    0.18374    0.06690    1.000
    O54      O        0.11750    0.15191    0.03110    1.000
    O55      O        0.22580    0.49490    0.28260    1.000
    O56      O        0.30980    0.46470    0.52660    1.000
    O57      O        0.27310    0.48376    0.00200    1.000
    O58      O        0.32230    0.52770    0.86130    1.000
    O59      O        0.40460    0.21818    0.08890    1.000
    O60      O        0.45846    0.25921    0.27750    1.000
    O61      O        0.39810    0.68469    0.24340    1.000
    O62      O        0.33580    0.66864    0.01800    1.000
    C57      C        0.48890    0.35713    0.34130    1.000
    C58      C        0.45840    0.40115    0.31470    1.000
    C59      C        0.49930    0.42601    0.23900    1.000
    H31      H        0.54380    0.41530    0.20330    1.000
    C60      C        0.47390    0.46695    0.21640    1.000
    H32      H        0.50480    0.48360    0.17020    1.000
    C61      C        0.40440    0.48387    0.26000    1.000
    C62      C        0.36710    0.45855    0.33480    1.000
    C63      C        0.39220    0.41808    0.36410    1.000
    H33      H        0.36440    0.40230    0.41720    1.000
    C64      C        0.38280    0.52844    0.23140    1.000
    C65      C        0.34200    0.54462    0.09910    1.000
    C66      C        0.33600    0.58647    0.07160    1.000
    H34      H        0.30870    0.59600    0.98140    1.000
    C67      C        0.37040    0.61380    0.17830    1.000
    C68      C        0.40870    0.59854    0.31010    1.000
    H35      H        0.43050    0.61670    0.38420    1.000
    C69      C        0.41560    0.55649    0.33450    1.000
    H36      H        0.44360    0.54720    0.42470    1.000
    C70      C        0.36830    0.65920    0.14780    1.000
    C71      C        0.77390    0.25363    0.34110    1.000
    C72      C        0.86390    0.25112    0.31450    1.000
    C73      C        0.92100    0.21784    0.36690    1.000
    H37      H        0.90270    0.19760    0.41820    1.000
    C74      C        0.00340    0.21485    0.34310    1.000
    C75      C        0.03570    0.24374    0.26690    1.000
    C76      C        0.97880    0.27774    0.21950    1.000
    H38      H        0.99820    0.29850    0.17130    1.000
    C77      C        0.89390    0.28138    0.24260    1.000
    H39      H        0.85740    0.30430    0.20940    1.000
    C78      C        0.12570    0.24233    0.23750    1.000
    C79      C        0.18750    0.27320    0.28900    1.000
    H40      H        0.16980    0.29520    0.33420    1.000
    C80      C        0.27560    0.27299    0.27670    1.000
    H41      H        0.31650    0.29390    0.31610    1.000
    C81      C        0.30130    0.24133    0.20530    1.000
    C82      C        0.23880    0.21076    0.14360    1.000
    H42      H        0.25500    0.18980    0.09250    1.000
    C83      C        0.15250    0.21184    0.15910    1.000
    C84      C        0.39650    0.23948    0.19090    1.000
    N9       N        0.29210    0.47280    0.38720    1.000
    N10      N        0.06210    0.17997    0.40810    1.000
    N11      N        0.08820    0.17984    0.08820    1.000
    N12      N        0.30950    0.51660    0.97760    1.000
    O63      O        0.09700    0.15530    0.33190    1.000
    O64      O        0.25550    0.50520    0.36500    1.000
    O65      O        0.24200    0.44740    0.42960    1.000
    O66      O        0.23490    0.52880    0.89500    1.000
    Cu10     Cu       0.41706    0.78382    0.23480    1.000
    Cu11     Cu       0.48896    0.78563    0.97274    1.000
    Cu12     Cu       0.34304    0.72674    0.99804    1.000
    O67      O        0.37873    0.78451    0.03100    1.000
    H43      H        0.33160    0.80470    0.98640    1.000
    O68      O        0.46820    0.84282    0.23560    1.000
    O69      O        0.53138    0.83960    0.05900    1.000
    O70      O        0.28992    0.77394    0.24470    1.000
    O71      O        0.23321    0.73484    0.05260    1.000
    O72      O        0.45313    0.77400    0.43340    1.000
    H44      H        0.50020    0.79320    0.48620    1.000
    O73      O        0.96610    0.65540    0.03160    1.000
    O74      O        0.85430    0.68840    0.04580    1.000
    O75      O        0.99230    0.68374    0.43310    1.000
    O76      O        0.88250    0.65191    0.46890    1.000
    O77      O        0.77420    0.99490    0.21740    1.000
    O78      O        0.69020    0.96470    0.97340    1.000
    O79      O        0.72690    0.98376    0.49800    1.000
    O80      O        0.67770    0.02770    0.63870    1.000
    O81      O        0.59540    0.71818    0.41110    1.000
    O82      O        0.54154    0.75921    0.22250    1.000
    O83      O        0.60190    0.18469    0.25660    1.000
    O84      O        0.66420    0.16864    0.48200    1.000
    C85      C        0.51110    0.85713    0.15870    1.000
    C86      C        0.54160    0.90115    0.18530    1.000
    C87      C        0.50070    0.92601    0.26100    1.000
    H45      H        0.45620    0.91530    0.29670    1.000
    C88      C        0.52610    0.96695    0.28360    1.000
    H46      H        0.49520    0.98360    0.32980    1.000
    C89      C        0.59560    0.98387    0.24000    1.000
    C90      C        0.63290    0.95855    0.16520    1.000
    C91      C        0.60780    0.91808    0.13590    1.000
    H47      H        0.63560    0.90230    0.08280    1.000
    C92      C        0.61720    0.02844    0.26860    1.000
    C93      C        0.65800    0.04462    0.40090    1.000
    C94      C        0.66400    0.08647    0.42840    1.000
    H48      H        0.69130    0.09600    0.51860    1.000
    C95      C        0.62960    0.11380    0.32170    1.000
    C96      C        0.59130    0.09854    0.18990    1.000
    H49      H        0.56950    0.11670    0.11580    1.000
    C97      C        0.58440    0.05649    0.16550    1.000
    H50      H        0.55640    0.04720    0.07530    1.000
    C98      C        0.63170    0.15920    0.35220    1.000
    C99      C        0.22610    0.75363    0.15890    1.000
    C100     C        0.13610    0.75112    0.18550    1.000
    C101     C        0.07900    0.71784    0.13310    1.000
    H51      H        0.09730    0.69760    0.08180    1.000
    C102     C        0.99660    0.71485    0.15690    1.000
    C103     C        0.96430    0.74374    0.23310    1.000
    C104     C        0.02120    0.77774    0.28050    1.000
    H52      H        0.00180    0.79850    0.32870    1.000
    C105     C        0.10610    0.78138    0.25740    1.000
    H53      H        0.14260    0.80430    0.29060    1.000
    C106     C        0.87430    0.74233    0.26250    1.000
    C107     C        0.81250    0.77320    0.21100    1.000
    H54      H        0.83020    0.79520    0.16580    1.000
    C108     C        0.72440    0.77299    0.22330    1.000
    H55      H        0.68350    0.79390    0.18390    1.000
    C109     C        0.69870    0.74133    0.29470    1.000
    C110     C        0.76120    0.71076    0.35640    1.000
    H56      H        0.74500    0.68980    0.40750    1.000
    C111     C        0.84750    0.71184    0.34090    1.000
    C112     C        0.60350    0.73948    0.30910    1.000
    N13      N        0.70790    0.97280    0.11280    1.000
    N14      N        0.93790    0.67997    0.09190    1.000
    N15      N        0.91180    0.67984    0.41180    1.000
    N16      N        0.69050    0.01660    0.52240    1.000
    O85      O        0.90300    0.65530    0.16810    1.000
    O86      O        0.74450    0.00520    0.13500    1.000
    O87      O        0.75800    0.94740    0.07040    1.000
    O88      O        0.76510    0.02880    0.60500    1.000
