# CIF file generated by openbabel 3.1.0, see https://openbabel.org
data_I
_chemical_name_common 'YEQRER_clean'
_cell_length_a 8.8515
_cell_length_b 15.6733
_cell_length_c 17.9457
_cell_angle_alpha 105.459
_cell_angle_beta 99.1
_cell_angle_gamma 98.586
_space_group_name_H-M_alt 'P 1'
_space_group_name_Hall 'P 1'
loop_
    _symmetry_equiv_pos_as_xyz
    x,y,z
loop_
    _atom_site_label
    _atom_site_type_symbol
    _atom_site_fract_x
    _atom_site_fract_y
    _atom_site_fract_z
    _atom_site_occupancy
    Yb1      Yb       0.31963    0.16822    0.27452    1.000
    Yb2      Yb       0.68037    0.83178    0.72548    1.000
    K1       K        0.55430    0.70630    0.11910    1.000
    K2       K        0.44570    0.29370    0.88090    1.000
    Pt1      Pt       0.50000    0.00000    0.50000    1.000
    Pt2      Pt       0.50000    0.50000    0.50000    1.000
    Pt3      Pt       0.50000    0.00000    0.00000    1.000
    Pt4      Pt       0.00000    0.50000    0.00000    1.000
    C1       C        0.43800    0.06240    0.42210    1.000
    C2       C        0.68600    0.10130    0.54850    1.000
    C3       C        0.40800    0.37550    0.42560    1.000
    C4       C        0.32900    0.49300    0.55760    1.000
    C5       C        0.45500    0.06260    0.10410    1.000
    C6       C        0.59500    0.91460    0.04840    1.000
    C7       C        0.17100    0.60530    0.00920    1.000
    C8       C        0.87900    0.58140    0.05810    1.000
    C9       C        0.56200    0.93760    0.57790    1.000
    C10      C        0.31400    0.89870    0.45150    1.000
    C11      C        0.59200    0.62450    0.57440    1.000
    C12      C        0.67100    0.50700    0.44240    1.000
    C13      C        0.54500    0.93740    0.89590    1.000
    C14      C        0.40500    0.08540    0.95160    1.000
    C15      C        0.82900    0.39470    0.99080    1.000
    C16      C        0.12100    0.41860    0.94190    1.000
    N1       N        0.40500    0.10160    0.37850    1.000
    N2       N        0.79100    0.15960    0.57580    1.000
    N3       N        0.35980    0.30570    0.37960    1.000
    N4       N        0.23200    0.48880    0.59450    1.000
    N5       N        0.42310    0.09680    0.16220    1.000
    N6       N        0.64700    0.86090    0.07510    1.000
    N7       N        0.26600    0.66490    0.01540    1.000
    N8       N        0.80800    0.62730    0.09040    1.000
    N9       N        0.59500    0.89840    0.62150    1.000
    N10      N        0.20900    0.84040    0.42420    1.000
    N11      N        0.64020    0.69430    0.62040    1.000
    N12      N        0.76800    0.51120    0.40550    1.000
    N13      N        0.57690    0.90320    0.83780    1.000
    N14      N        0.35300    0.13910    0.92490    1.000
    N15      N        0.73400    0.33510    0.98460    1.000
    N16      N        0.19200    0.37270    0.90960    1.000
