# CIF file generated by openbabel 3.1.0, see https://openbabel.org
data_I
_chemical_name_common 'image0'
_cell_length_a 17.4935
_cell_length_b 26.0116
_cell_length_c 15.8081
_cell_angle_alpha 90
_cell_angle_beta 114.995
_cell_angle_gamma 90
_space_group_name_H-M_alt 'P 1'
_space_group_name_Hall 'P 1'
loop_
    _symmetry_equiv_pos_as_xyz
    x,y,z
loop_
    _atom_site_label
    _atom_site_type_symbol
    _atom_site_fract_x
    _atom_site_fract_y
    _atom_site_fract_z
    _atom_site_occupancy
    U1       U        0.64677    0.73470    0.57713    1.000
    Cu1      Cu       0.75966    0.47113    0.48597    1.000
    C1       C        0.93210    0.61960    0.60050    1.000
    H1       H        0.96710    0.64830    0.61740    1.000
    N1       N        0.69510    0.40690    0.43210    1.000
    C2       C        0.96520    0.57080    0.61370    1.000
    H2       H        0.02340    0.56610    0.64310    1.000
    N2       N        0.71690    0.45470    0.58570    1.000
    C3       C        0.79650    0.58170    0.53400    1.000
    H3       H        0.73810    0.58540    0.50730    1.000
    N3       N        0.88300    0.43990    0.54830    1.000
    C4       C        0.02880    0.46100    0.62800    1.000
    H4       H        0.07060    0.48540    0.65660    1.000
    N4       N        0.82950    0.53420    0.54430    1.000
    C5       C        0.63900    0.34270    0.31620    1.000
    C6       C        0.80320    0.67670    0.54510    1.000
    C7       C        0.67280    0.40980    0.57030    1.000
    C8       C        0.73980    0.47950    0.66610    1.000
    H5       H        0.77150    0.50950    0.67630    1.000
    C9       C        0.84550    0.62470    0.56140    1.000
    C10      C        0.68770    0.38690    0.35260    1.000
    H6       H        0.71520    0.40230    0.32010    1.000
    C11      C        0.98680    0.37570    0.58350    1.000
    C12      C        0.59650    0.32080    0.36340    1.000
    H7       H        0.56240    0.29210    0.33900    1.000
    C13      C        0.90600    0.39140    0.54720    1.000
    H8       H        0.86400    0.36690    0.51970    1.000
    C14      C        0.67230    0.41950    0.71910    1.000
    H9       H        0.65480    0.40820    0.76390    1.000
    C15      C        0.91240    0.52840    0.58340    1.000
    C16      C        0.60520    0.34170    0.44690    1.000
    H10      H        0.57720    0.32730    0.47970    1.000
    C17      C        0.04820    0.41130    0.62360    1.000
    H11      H        0.10440    0.40120    0.64850    1.000
    C18      C        0.65650    0.38480    0.48200    1.000
    C19      C        0.94370    0.47440    0.58800    1.000
    C20      C        0.00600    0.31880    0.57430    1.000
    O1       O        0.84590    0.71460    0.54340    1.000
    O2       O        0.72840    0.67720    0.53410    1.000
    O3       O        0.67620    0.33920    0.18630    1.000
    O4       O        0.59970    0.27600    0.20240    1.000
    O5       O        0.08020    0.30950    0.58560    1.000
    C21      C        0.63840    0.31810    0.22990    1.000
    O6       O        0.94980    0.28650    0.55560    1.000
    C22      C        0.64880    0.39010    0.63560    1.000
    H12      H        0.61900    0.35940    0.62620    1.000
    C23      C        0.74730    0.49540    0.82690    1.000
    C24      C        0.71740    0.46160    0.73550    1.000
    O7       O        0.70230    0.48880    0.86850    1.000
    O8       O        0.80560    0.52350    0.84330    1.000
    U2       U        0.14677    0.23470    0.57713    1.000
    Cu2      Cu       0.25966    0.97113    0.48597    1.000
    C25      C        0.43210    0.11960    0.60050    1.000
    H13      H        0.46710    0.14830    0.61740    1.000
    N5       N        0.19510    0.90690    0.43210    1.000
    C26      C        0.46520    0.07080    0.61370    1.000
    H14      H        0.52340    0.06610    0.64310    1.000
    N6       N        0.21690    0.95470    0.58570    1.000
    C27      C        0.29650    0.08170    0.53400    1.000
    H15      H        0.23810    0.08540    0.50730    1.000
    N7       N        0.38300    0.93990    0.54830    1.000
    C28      C        0.52880    0.96100    0.62800    1.000
    H16      H        0.57060    0.98540    0.65660    1.000
    N8       N        0.32950    0.03420    0.54430    1.000
    C29      C        0.13900    0.84270    0.31620    1.000
    C30      C        0.30320    0.17670    0.54510    1.000
    C31      C        0.17280    0.90980    0.57030    1.000
    C32      C        0.23980    0.97950    0.66610    1.000
    H17      H        0.27150    0.00950    0.67630    1.000
    C33      C        0.34550    0.12470    0.56140    1.000
    C34      C        0.18770    0.88690    0.35260    1.000
    H18      H        0.21520    0.90230    0.32010    1.000
    C35      C        0.48680    0.87570    0.58350    1.000
    C36      C        0.09650    0.82080    0.36340    1.000
    H19      H        0.06240    0.79210    0.33900    1.000
    C37      C        0.40600    0.89140    0.54720    1.000
    H20      H        0.36400    0.86690    0.51970    1.000
    C38      C        0.17230    0.91950    0.71910    1.000
    H21      H        0.15480    0.90820    0.76390    1.000
    C39      C        0.41240    0.02840    0.58340    1.000
    C40      C        0.10520    0.84170    0.44690    1.000
    H22      H        0.07720    0.82730    0.47970    1.000
    C41      C        0.54820    0.91130    0.62360    1.000
    H23      H        0.60440    0.90120    0.64850    1.000
    C42      C        0.15650    0.88480    0.48200    1.000
    C43      C        0.44370    0.97440    0.58800    1.000
    C44      C        0.50600    0.81880    0.57430    1.000
    O9       O        0.34590    0.21460    0.54340    1.000
    O10      O        0.22840    0.17720    0.53410    1.000
    O11      O        0.17620    0.83920    0.18630    1.000
    O12      O        0.09970    0.77600    0.20240    1.000
    O13      O        0.58020    0.80950    0.58560    1.000
    C45      C        0.13840    0.81810    0.22990    1.000
    O14      O        0.44980    0.78650    0.55560    1.000
    C46      C        0.14880    0.89010    0.63560    1.000
    H24      H        0.11900    0.85940    0.62620    1.000
    C47      C        0.24730    0.99540    0.82690    1.000
    C48      C        0.21740    0.96160    0.73550    1.000
    O15      O        0.20230    0.98880    0.86850    1.000
    O16      O        0.30560    0.02350    0.84330    1.000
    U3       U        0.35323    0.73470    0.92287    1.000
    Cu3      Cu       0.24034    0.47113    0.01403    1.000
    C49      C        0.06790    0.61960    0.89950    1.000
    H25      H        0.03290    0.64830    0.88260    1.000
    N9       N        0.30490    0.40690    0.06790    1.000
    C50      C        0.03480    0.57080    0.88630    1.000
    H26      H        0.97660    0.56610    0.85690    1.000
    N10      N        0.28310    0.45470    0.91430    1.000
    C51      C        0.20350    0.58170    0.96600    1.000
    H27      H        0.26190    0.58540    0.99270    1.000
    N11      N        0.11700    0.43990    0.95170    1.000
    C52      C        0.97120    0.46100    0.87200    1.000
    H28      H        0.92940    0.48540    0.84340    1.000
    N12      N        0.17050    0.53420    0.95570    1.000
    C53      C        0.36100    0.34270    0.18380    1.000
    C54      C        0.19680    0.67670    0.95490    1.000
    C55      C        0.32720    0.40980    0.92970    1.000
    C56      C        0.26020    0.47950    0.83390    1.000
    H29      H        0.22850    0.50950    0.82370    1.000
    C57      C        0.15450    0.62470    0.93860    1.000
    C58      C        0.31230    0.38690    0.14740    1.000
    H30      H        0.28480    0.40230    0.17990    1.000
    C59      C        0.01320    0.37570    0.91650    1.000
    C60      C        0.40350    0.32080    0.13660    1.000
    H31      H        0.43760    0.29210    0.16100    1.000
    C61      C        0.09400    0.39140    0.95280    1.000
    H32      H        0.13600    0.36690    0.98030    1.000
    C62      C        0.32770    0.41950    0.78090    1.000
    H33      H        0.34520    0.40820    0.73610    1.000
    C63      C        0.08760    0.52840    0.91660    1.000
    C64      C        0.39480    0.34170    0.05310    1.000
    H34      H        0.42280    0.32730    0.02030    1.000
    C65      C        0.95180    0.41130    0.87640    1.000
    H35      H        0.89560    0.40120    0.85150    1.000
    C66      C        0.34350    0.38480    0.01800    1.000
    C67      C        0.05630    0.47440    0.91200    1.000
    C68      C        0.99400    0.31880    0.92570    1.000
    O17      O        0.15410    0.71460    0.95660    1.000
    O18      O        0.27160    0.67720    0.96590    1.000
    O19      O        0.32380    0.33920    0.31370    1.000
    O20      O        0.40030    0.27600    0.29760    1.000
    O21      O        0.91980    0.30950    0.91440    1.000
    C69      C        0.36160    0.31810    0.27010    1.000
    O22      O        0.05020    0.28650    0.94440    1.000
    C70      C        0.35120    0.39010    0.86440    1.000
    H36      H        0.38100    0.35940    0.87380    1.000
    C71      C        0.25270    0.49540    0.67310    1.000
    C72      C        0.28260    0.46160    0.76450    1.000
    O23      O        0.29770    0.48880    0.63150    1.000
    O24      O        0.19440    0.52350    0.65670    1.000
    U4       U        0.85323    0.23470    0.92287    1.000
    Cu4      Cu       0.74034    0.97113    0.01403    1.000
    C73      C        0.56790    0.11960    0.89950    1.000
    H37      H        0.53290    0.14830    0.88260    1.000
    N13      N        0.80490    0.90690    0.06790    1.000
    C74      C        0.53480    0.07080    0.88630    1.000
    H38      H        0.47660    0.06610    0.85690    1.000
    N14      N        0.78310    0.95470    0.91430    1.000
    C75      C        0.70350    0.08170    0.96600    1.000
    H39      H        0.76190    0.08540    0.99270    1.000
    N15      N        0.61700    0.93990    0.95170    1.000
    C76      C        0.47120    0.96100    0.87200    1.000
    H40      H        0.42940    0.98540    0.84340    1.000
    N16      N        0.67050    0.03420    0.95570    1.000
    C77      C        0.86100    0.84270    0.18380    1.000
    C78      C        0.69680    0.17670    0.95490    1.000
    C79      C        0.82720    0.90980    0.92970    1.000
    C80      C        0.76020    0.97950    0.83390    1.000
    H41      H        0.72850    0.00950    0.82370    1.000
    C81      C        0.65450    0.12470    0.93860    1.000
    C82      C        0.81230    0.88690    0.14740    1.000
    H42      H        0.78480    0.90230    0.17990    1.000
    C83      C        0.51320    0.87570    0.91650    1.000
    C84      C        0.90350    0.82080    0.13660    1.000
    H43      H        0.93760    0.79210    0.16100    1.000
    C85      C        0.59400    0.89140    0.95280    1.000
    H44      H        0.63600    0.86690    0.98030    1.000
    C86      C        0.82770    0.91950    0.78090    1.000
    H45      H        0.84520    0.90820    0.73610    1.000
    C87      C        0.58760    0.02840    0.91660    1.000
    C88      C        0.89480    0.84170    0.05310    1.000
    H46      H        0.92280    0.82730    0.02030    1.000
    C89      C        0.45180    0.91130    0.87640    1.000
    H47      H        0.39560    0.90120    0.85150    1.000
    C90      C        0.84350    0.88480    0.01800    1.000
    C91      C        0.55630    0.97440    0.91200    1.000
    C92      C        0.49400    0.81880    0.92570    1.000
    O25      O        0.65410    0.21460    0.95660    1.000
    O26      O        0.77160    0.17720    0.96590    1.000
    O27      O        0.82380    0.83920    0.31370    1.000
    O28      O        0.90030    0.77600    0.29760    1.000
    O29      O        0.41980    0.80950    0.91440    1.000
    C93      C        0.86160    0.81810    0.27010    1.000
    O30      O        0.55020    0.78650    0.94440    1.000
    C94      C        0.85120    0.89010    0.86440    1.000
    H48      H        0.88100    0.85940    0.87380    1.000
    C95      C        0.75270    0.99540    0.67310    1.000
    C96      C        0.78260    0.96160    0.76450    1.000
    O31      O        0.79770    0.98880    0.63150    1.000
    O32      O        0.69440    0.02350    0.65670    1.000
    U5       U        0.35323    0.26530    0.42287    1.000
    Cu5      Cu       0.24034    0.52887    0.51403    1.000
    C97      C        0.06790    0.38040    0.39950    1.000
    H49      H        0.03290    0.35170    0.38260    1.000
    N17      N        0.30490    0.59310    0.56790    1.000
    C98      C        0.03480    0.42920    0.38630    1.000
    H50      H        0.97660    0.43390    0.35690    1.000
    N18      N        0.28310    0.54530    0.41430    1.000
    C99      C        0.20350    0.41830    0.46600    1.000
    H51      H        0.26190    0.41460    0.49270    1.000
    N19      N        0.11700    0.56010    0.45170    1.000
    C100     C        0.97120    0.53900    0.37200    1.000
    H52      H        0.92940    0.51460    0.34340    1.000
    N20      N        0.17050    0.46580    0.45570    1.000
    C101     C        0.36100    0.65730    0.68380    1.000
    C102     C        0.19680    0.32330    0.45490    1.000
    C103     C        0.32720    0.59020    0.42970    1.000
    C104     C        0.26020    0.52050    0.33390    1.000
    H53      H        0.22850    0.49050    0.32370    1.000
    C105     C        0.15450    0.37530    0.43860    1.000
    C106     C        0.31230    0.61310    0.64740    1.000
    H54      H        0.28480    0.59770    0.67990    1.000
    C107     C        0.01320    0.62430    0.41650    1.000
    C108     C        0.40350    0.67920    0.63660    1.000
    H55      H        0.43760    0.70790    0.66100    1.000
    C109     C        0.09400    0.60860    0.45280    1.000
    H56      H        0.13600    0.63310    0.48030    1.000
    C110     C        0.32770    0.58050    0.28090    1.000
    H57      H        0.34520    0.59180    0.23610    1.000
    C111     C        0.08760    0.47160    0.41660    1.000
    C112     C        0.39480    0.65830    0.55310    1.000
    H58      H        0.42280    0.67270    0.52030    1.000
    C113     C        0.95180    0.58870    0.37640    1.000
    H59      H        0.89560    0.59880    0.35150    1.000
    C114     C        0.34350    0.61520    0.51800    1.000
    C115     C        0.05630    0.52560    0.41200    1.000
    C116     C        0.99400    0.68120    0.42570    1.000
    O33      O        0.15410    0.28540    0.45660    1.000
    O34      O        0.27160    0.32280    0.46590    1.000
    O35      O        0.32380    0.66080    0.81370    1.000
    O36      O        0.40030    0.72400    0.79760    1.000
    O37      O        0.91980    0.69050    0.41440    1.000
    C117     C        0.36160    0.68190    0.77010    1.000
    O38      O        0.05020    0.71350    0.44440    1.000
    C118     C        0.35120    0.60990    0.36440    1.000
    H60      H        0.38100    0.64060    0.37380    1.000
    C119     C        0.25270    0.50460    0.17310    1.000
    C120     C        0.28260    0.53840    0.26450    1.000
    O39      O        0.29770    0.51120    0.13150    1.000
    O40      O        0.19440    0.47650    0.15670    1.000
    U6       U        0.85323    0.76530    0.42287    1.000
    Cu6      Cu       0.74034    0.02887    0.51403    1.000
    C121     C        0.56790    0.88040    0.39950    1.000
    H61      H        0.53290    0.85170    0.38260    1.000
    N21      N        0.80490    0.09310    0.56790    1.000
    C122     C        0.53480    0.92920    0.38630    1.000
    H62      H        0.47660    0.93390    0.35690    1.000
    N22      N        0.78310    0.04530    0.41430    1.000
    C123     C        0.70350    0.91830    0.46600    1.000
    H63      H        0.76190    0.91460    0.49270    1.000
    N23      N        0.61700    0.06010    0.45170    1.000
    C124     C        0.47120    0.03900    0.37200    1.000
    H64      H        0.42940    0.01460    0.34340    1.000
    N24      N        0.67050    0.96580    0.45570    1.000
    C125     C        0.86100    0.15730    0.68380    1.000
    C126     C        0.69680    0.82330    0.45490    1.000
    C127     C        0.82720    0.09020    0.42970    1.000
    C128     C        0.76020    0.02050    0.33390    1.000
    H65      H        0.72850    0.99050    0.32370    1.000
    C129     C        0.65450    0.87530    0.43860    1.000
    C130     C        0.81230    0.11310    0.64740    1.000
    H66      H        0.78480    0.09770    0.67990    1.000
    C131     C        0.51320    0.12430    0.41650    1.000
    C132     C        0.90350    0.17920    0.63660    1.000
    H67      H        0.93760    0.20790    0.66100    1.000
    C133     C        0.59400    0.10860    0.45280    1.000
    H68      H        0.63600    0.13310    0.48030    1.000
    C134     C        0.82770    0.08050    0.28090    1.000
    H69      H        0.84520    0.09180    0.23610    1.000
    C135     C        0.58760    0.97160    0.41660    1.000
    C136     C        0.89480    0.15830    0.55310    1.000
    H70      H        0.92280    0.17270    0.52030    1.000
    C137     C        0.45180    0.08870    0.37640    1.000
    H71      H        0.39560    0.09880    0.35150    1.000
    C138     C        0.84350    0.11520    0.51800    1.000
    C139     C        0.55630    0.02560    0.41200    1.000
    C140     C        0.49400    0.18120    0.42570    1.000
    O41      O        0.65410    0.78540    0.45660    1.000
    O42      O        0.77160    0.82280    0.46590    1.000
    O43      O        0.82380    0.16080    0.81370    1.000
    O44      O        0.90030    0.22400    0.79760    1.000
    O45      O        0.41980    0.19050    0.41440    1.000
    C141     C        0.86160    0.18190    0.77010    1.000
    O46      O        0.55020    0.21350    0.44440    1.000
    C142     C        0.85120    0.10990    0.36440    1.000
    H72      H        0.88100    0.14060    0.37380    1.000
    C143     C        0.75270    0.00460    0.17310    1.000
    C144     C        0.78260    0.03840    0.26450    1.000
    O47      O        0.79770    0.01120    0.13150    1.000
    O48      O        0.69440    0.97650    0.15670    1.000
    U7       U        0.64677    0.26530    0.07713    1.000
    Cu7      Cu       0.75966    0.52887    0.98597    1.000
    C145     C        0.93210    0.38040    0.10050    1.000
    H73      H        0.96710    0.35170    0.11740    1.000
    N25      N        0.69510    0.59310    0.93210    1.000
    C146     C        0.96520    0.42920    0.11370    1.000
    H74      H        0.02340    0.43390    0.14310    1.000
    N26      N        0.71690    0.54530    0.08570    1.000
    C147     C        0.79650    0.41830    0.03400    1.000
    H75      H        0.73810    0.41460    0.00730    1.000
    N27      N        0.88300    0.56010    0.04830    1.000
    C148     C        0.02880    0.53900    0.12800    1.000
    H76      H        0.07060    0.51460    0.15660    1.000
    N28      N        0.82950    0.46580    0.04430    1.000
    C149     C        0.63900    0.65730    0.81620    1.000
    C150     C        0.80320    0.32330    0.04510    1.000
    C151     C        0.67280    0.59020    0.07030    1.000
    C152     C        0.73980    0.52050    0.16610    1.000
    H77      H        0.77150    0.49050    0.17630    1.000
    C153     C        0.84550    0.37530    0.06140    1.000
    C154     C        0.68770    0.61310    0.85260    1.000
    H78      H        0.71520    0.59770    0.82010    1.000
    C155     C        0.98680    0.62430    0.08350    1.000
    C156     C        0.59650    0.67920    0.86340    1.000
    H79      H        0.56240    0.70790    0.83900    1.000
    C157     C        0.90600    0.60860    0.04720    1.000
    H80      H        0.86400    0.63310    0.01970    1.000
    C158     C        0.67230    0.58050    0.21910    1.000
    H81      H        0.65480    0.59180    0.26390    1.000
    C159     C        0.91240    0.47160    0.08340    1.000
    C160     C        0.60520    0.65830    0.94690    1.000
    H82      H        0.57720    0.67270    0.97970    1.000
    C161     C        0.04820    0.58870    0.12360    1.000
    H83      H        0.10440    0.59880    0.14850    1.000
    C162     C        0.65650    0.61520    0.98200    1.000
    C163     C        0.94370    0.52560    0.08800    1.000
    C164     C        0.00600    0.68120    0.07430    1.000
    O49      O        0.84590    0.28540    0.04340    1.000
    O50      O        0.72840    0.32280    0.03410    1.000
    O51      O        0.67620    0.66080    0.68630    1.000
    O52      O        0.59970    0.72400    0.70240    1.000
    O53      O        0.08020    0.69050    0.08560    1.000
    C165     C        0.63840    0.68190    0.72990    1.000
    O54      O        0.94980    0.71350    0.05560    1.000
    C166     C        0.64880    0.60990    0.13560    1.000
    H84      H        0.61900    0.64060    0.12620    1.000
    C167     C        0.74730    0.50460    0.32690    1.000
    C168     C        0.71740    0.53840    0.23550    1.000
    O55      O        0.70230    0.51120    0.36850    1.000
    O56      O        0.80560    0.47650    0.34330    1.000
    U8       U        0.14677    0.76530    0.07713    1.000
    Cu8      Cu       0.25966    0.02887    0.98597    1.000
    C169     C        0.43210    0.88040    0.10050    1.000
    H85      H        0.46710    0.85170    0.11740    1.000
    N29      N        0.19510    0.09310    0.93210    1.000
    C170     C        0.46520    0.92920    0.11370    1.000
    H86      H        0.52340    0.93390    0.14310    1.000
    N30      N        0.21690    0.04530    0.08570    1.000
    C171     C        0.29650    0.91830    0.03400    1.000
    H87      H        0.23810    0.91460    0.00730    1.000
    N31      N        0.38300    0.06010    0.04830    1.000
    C172     C        0.52880    0.03900    0.12800    1.000
    H88      H        0.57060    0.01460    0.15660    1.000
    N32      N        0.32950    0.96580    0.04430    1.000
    C173     C        0.13900    0.15730    0.81620    1.000
    C174     C        0.30320    0.82330    0.04510    1.000
    C175     C        0.17280    0.09020    0.07030    1.000
    C176     C        0.23980    0.02050    0.16610    1.000
    H89      H        0.27150    0.99050    0.17630    1.000
    C177     C        0.34550    0.87530    0.06140    1.000
    C178     C        0.18770    0.11310    0.85260    1.000
    H90      H        0.21520    0.09770    0.82010    1.000
    C179     C        0.48680    0.12430    0.08350    1.000
    C180     C        0.09650    0.17920    0.86340    1.000
    H91      H        0.06240    0.20790    0.83900    1.000
    C181     C        0.40600    0.10860    0.04720    1.000
    H92      H        0.36400    0.13310    0.01970    1.000
    C182     C        0.17230    0.08050    0.21910    1.000
    H93      H        0.15480    0.09180    0.26390    1.000
    C183     C        0.41240    0.97160    0.08340    1.000
    C184     C        0.10520    0.15830    0.94690    1.000
    H94      H        0.07720    0.17270    0.97970    1.000
    C185     C        0.54820    0.08870    0.12360    1.000
    H95      H        0.60440    0.09880    0.14850    1.000
    C186     C        0.15650    0.11520    0.98200    1.000
    C187     C        0.44370    0.02560    0.08800    1.000
    C188     C        0.50600    0.18120    0.07430    1.000
    O57      O        0.34590    0.78540    0.04340    1.000
    O58      O        0.22840    0.82280    0.03410    1.000
    O59      O        0.17620    0.16080    0.68630    1.000
    O60      O        0.09970    0.22400    0.70240    1.000
    O61      O        0.58020    0.19050    0.08560    1.000
    C189     C        0.13840    0.18190    0.72990    1.000
    O62      O        0.44980    0.21350    0.05560    1.000
    C190     C        0.14880    0.10990    0.13560    1.000
    H96      H        0.11900    0.14060    0.12620    1.000
    C191     C        0.24730    0.00460    0.32690    1.000
    C192     C        0.21740    0.03840    0.23550    1.000
    O63      O        0.20230    0.01120    0.36850    1.000
    O64      O        0.30560    0.97650    0.34330    1.000
