# CIF file generated by openbabel 3.1.0, see https://openbabel.org
data_I
_chemical_name_common 'image0'
_cell_length_a 13.5274
_cell_length_b 13.5274
_cell_length_c 19.2645
_cell_angle_alpha 90
_cell_angle_beta 90
_cell_angle_gamma 120
_space_group_name_H-M_alt 'P 1'
_space_group_name_Hall 'P 1'
loop_
    _symmetry_equiv_pos_as_xyz
    x,y,z
loop_
    _atom_site_label
    _atom_site_type_symbol
    _atom_site_fract_x
    _atom_site_fract_y
    _atom_site_fract_z
    _atom_site_occupancy
    Fe1      Fe       0.85560    0.56550    0.45037    1.000
    P1       P        0.96350    0.81210    0.37120    1.000
    P2       P        0.63210    0.50510    0.54390    1.000
    O1       O        0.88090    0.68600    0.38310    1.000
    O2       O        0.08120    0.82490    0.34750    1.000
    O3       O        0.92340    0.85970    0.31280    1.000
    O4       O        0.98360    0.87480    0.44020    1.000
    O5       O        0.71350    0.56410    0.48370    1.000
    O6       O        0.70250    0.49500    0.60660    1.000
    O7       O        0.00590    0.58000    0.42890    1.000
    O8       O        0.83920    0.45720    0.52730    1.000
    O9       O        0.77220    0.44320    0.38620    1.000
    Fe2      Fe       0.43450    0.29010    0.45037    1.000
    P3       P        0.18790    0.15140    0.37120    1.000
    P4       P        0.49490    0.12700    0.54390    1.000
    O10      O        0.31400    0.19490    0.38310    1.000
    O11      O        0.17510    0.25630    0.34750    1.000
    O12      O        0.14030    0.06370    0.31280    1.000
    O13      O        0.12520    0.10880    0.44020    1.000
    O14      O        0.43590    0.14940    0.48370    1.000
    O15      O        0.50500    0.20750    0.60660    1.000
    O16      O        0.42000    0.42590    0.42890    1.000
    O17      O        0.54280    0.38200    0.52730    1.000
    O18      O        0.55680    0.32900    0.38620    1.000
    Fe3      Fe       0.70990    0.14440    0.45037    1.000
    P5       P        0.84860    0.03650    0.37120    1.000
    P6       P        0.87300    0.36790    0.54390    1.000
    O19      O        0.80510    0.11910    0.38310    1.000
    O20      O        0.74370    0.91880    0.34750    1.000
    O21      O        0.93630    0.07660    0.31280    1.000
    O22      O        0.89120    0.01640    0.44020    1.000
    O23      O        0.85060    0.28650    0.48370    1.000
    O24      O        0.79250    0.29750    0.60660    1.000
    O25      O        0.57410    0.99410    0.42890    1.000
    O26      O        0.61800    0.16080    0.52730    1.000
    O27      O        0.67100    0.22780    0.38620    1.000
    Fe4      Fe       0.56550    0.85560    0.04963    1.000
    P7       P        0.81210    0.96350    0.12880    1.000
    P8       P        0.50510    0.63210    0.95610    1.000
    O28      O        0.68600    0.88090    0.11690    1.000
    O29      O        0.82490    0.08120    0.15250    1.000
    O30      O        0.85970    0.92340    0.18720    1.000
    O31      O        0.87480    0.98360    0.05980    1.000
    O32      O        0.56410    0.71350    0.01630    1.000
    O33      O        0.49500    0.70250    0.89340    1.000
    O34      O        0.58000    0.00590    0.07110    1.000
    O35      O        0.45720    0.83920    0.97270    1.000
    O36      O        0.44320    0.77220    0.11380    1.000
    Fe5      Fe       0.29010    0.43450    0.04963    1.000
    P9       P        0.15140    0.18790    0.12880    1.000
    P10      P        0.12700    0.49490    0.95610    1.000
    O37      O        0.19490    0.31400    0.11690    1.000
    O38      O        0.25630    0.17510    0.15250    1.000
    O39      O        0.06370    0.14030    0.18720    1.000
    O40      O        0.10880    0.12520    0.05980    1.000
    O41      O        0.14940    0.43590    0.01630    1.000
    O42      O        0.20750    0.50500    0.89340    1.000
    O43      O        0.42590    0.42000    0.07110    1.000
    O44      O        0.38200    0.54280    0.97270    1.000
    O45      O        0.32900    0.55680    0.11380    1.000
    Fe6      Fe       0.14440    0.70990    0.04963    1.000
    P11      P        0.03650    0.84860    0.12880    1.000
    P12      P        0.36790    0.87300    0.95610    1.000
    O46      O        0.11910    0.80510    0.11690    1.000
    O47      O        0.91880    0.74370    0.15250    1.000
    O48      O        0.07660    0.93630    0.18720    1.000
    O49      O        0.01640    0.89120    0.05980    1.000
    O50      O        0.28650    0.85060    0.01630    1.000
    O51      O        0.29750    0.79250    0.89340    1.000
    O52      O        0.99410    0.57410    0.07110    1.000
    O53      O        0.16080    0.61800    0.97270    1.000
    O54      O        0.22780    0.67100    0.11380    1.000
    Fe7      Fe       0.14440    0.43450    0.54963    1.000
    P13      P        0.03650    0.18790    0.62880    1.000
    P14      P        0.36790    0.49490    0.45610    1.000
    O55      O        0.11910    0.31400    0.61690    1.000
    O56      O        0.91880    0.17510    0.65250    1.000
    O57      O        0.07660    0.14030    0.68720    1.000
    O58      O        0.01640    0.12520    0.55980    1.000
    O59      O        0.28650    0.43590    0.51630    1.000
    O60      O        0.29750    0.50500    0.39340    1.000
    O61      O        0.99410    0.42000    0.57110    1.000
    O62      O        0.16080    0.54280    0.47270    1.000
    O63      O        0.22780    0.55680    0.61380    1.000
    Fe8      Fe       0.56550    0.70990    0.54963    1.000
    P15      P        0.81210    0.84860    0.62880    1.000
    P16      P        0.50510    0.87300    0.45610    1.000
    O64      O        0.68600    0.80510    0.61690    1.000
    O65      O        0.82490    0.74370    0.65250    1.000
    O66      O        0.85970    0.93630    0.68720    1.000
    O67      O        0.87480    0.89120    0.55980    1.000
    O68      O        0.56410    0.85060    0.51630    1.000
    O69      O        0.49500    0.79250    0.39340    1.000
    O70      O        0.58000    0.57410    0.57110    1.000
    O71      O        0.45720    0.61800    0.47270    1.000
    O72      O        0.44320    0.67100    0.61380    1.000
    Fe9      Fe       0.29010    0.85560    0.54963    1.000
    P17      P        0.15140    0.96350    0.62880    1.000
    P18      P        0.12700    0.63210    0.45610    1.000
    O73      O        0.19490    0.88090    0.61690    1.000
    O74      O        0.25630    0.08120    0.65250    1.000
    O75      O        0.06370    0.92340    0.68720    1.000
    O76      O        0.10880    0.98360    0.55980    1.000
    O77      O        0.14940    0.71350    0.51630    1.000
    O78      O        0.20750    0.70250    0.39340    1.000
    O79      O        0.42590    0.00590    0.57110    1.000
    O80      O        0.38200    0.83920    0.47270    1.000
    O81      O        0.32900    0.77220    0.61380    1.000
    Fe10     Fe       0.43450    0.14440    0.95037    1.000
    P19      P        0.18790    0.03650    0.87120    1.000
    P20      P        0.49490    0.36790    0.04390    1.000
    O82      O        0.31400    0.11910    0.88310    1.000
    O83      O        0.17510    0.91880    0.84750    1.000
    O84      O        0.14030    0.07660    0.81280    1.000
    O85      O        0.12520    0.01640    0.94020    1.000
    O86      O        0.43590    0.28650    0.98370    1.000
    O87      O        0.50500    0.29750    0.10660    1.000
    O88      O        0.42000    0.99410    0.92890    1.000
    O89      O        0.54280    0.16080    0.02730    1.000
    O90      O        0.55680    0.22780    0.88620    1.000
    Fe11     Fe       0.70990    0.56550    0.95037    1.000
    P21      P        0.84860    0.81210    0.87120    1.000
    P22      P        0.87300    0.50510    0.04390    1.000
    O91      O        0.80510    0.68600    0.88310    1.000
    O92      O        0.74370    0.82490    0.84750    1.000
    O93      O        0.93630    0.85970    0.81280    1.000
    O94      O        0.89120    0.87480    0.94020    1.000
    O95      O        0.85060    0.56410    0.98370    1.000
    O96      O        0.79250    0.49500    0.10660    1.000
    O97      O        0.57410    0.58000    0.92890    1.000
    O98      O        0.61800    0.45720    0.02730    1.000
    O99      O        0.67100    0.44320    0.88620    1.000
    Fe12     Fe       0.85560    0.29010    0.95037    1.000
    P23      P        0.96350    0.15140    0.87120    1.000
    P24      P        0.63210    0.12700    0.04390    1.000
    O100     O        0.88090    0.19490    0.88310    1.000
    O101     O        0.08120    0.25630    0.84750    1.000
    O102     O        0.92340    0.06370    0.81280    1.000
    O103     O        0.98360    0.10880    0.94020    1.000
    O104     O        0.71350    0.14940    0.98370    1.000
    O105     O        0.70250    0.20750    0.10660    1.000
    O106     O        0.00590    0.42590    0.92890    1.000
    O107     O        0.83920    0.38200    0.02730    1.000
    O108     O        0.77220    0.32900    0.88620    1.000
    Fe13     Fe       0.00000    0.00000    0.25000    1.000
    Fe14     Fe       0.00000    0.00000    0.75000    1.000
    Fe15     Fe       0.00000    0.00000    0.50000    1.000
    Fe16     Fe       0.00000    0.00000    0.00000    1.000
    P25      P        0.66667    0.33333    0.36250    1.000
    O109     O        0.66667    0.33333    0.28180    1.000
    P26      P        0.33333    0.66667    0.13750    1.000
    O110     O        0.33333    0.66667    0.21820    1.000
    P27      P        0.33333    0.66667    0.63750    1.000
    O111     O        0.33333    0.66667    0.71820    1.000
    P28      P        0.66667    0.33333    0.86250    1.000
    O112     O        0.66667    0.33333    0.78180    1.000
