# CIF file generated by openbabel 3.1.0, see https://openbabel.org
data_I
_chemical_name_common 'OSIXEU_clean'
_cell_length_a 11.7302
_cell_length_b 11.9026
_cell_length_c 12.5335
_cell_angle_alpha 106.769
_cell_angle_beta 106.195
_cell_angle_gamma 113.462
_space_group_name_H-M_alt 'P 1'
_space_group_name_Hall 'P 1'
loop_
    _symmetry_equiv_pos_as_xyz
    x,y,z
loop_
    _atom_site_label
    _atom_site_type_symbol
    _atom_site_fract_x
    _atom_site_fract_y
    _atom_site_fract_z
    _atom_site_occupancy
    Ag1      Ag       0.40852    0.23169    0.60612    1.000
    Ag2      Ag       0.73222    0.27957    0.87468    1.000
    Ag3      Ag       0.69760    0.37443    0.60612    1.000
    Ag4      Ag       0.64246    0.59511    0.87468    1.000
    Ag5      Ag       0.59148    0.76831    0.39388    1.000
    Ag6      Ag       0.26778    0.72043    0.12532    1.000
    Ag7      Ag       0.30240    0.62557    0.39388    1.000
    Ag8      Ag       0.35754    0.40489    0.12532    1.000
    H1       H        0.59170    0.32610    0.07320    1.000
    H2       H        0.26940    0.35620    0.74320    1.000
    H3       H        0.23400    0.36590    0.85580    1.000
    H4       H        0.04730    0.18010    0.67560    1.000
    H5       H        0.13940    0.11840    0.65440    1.000
    H6       H        0.10390    0.12810    0.76720    1.000
    H7       H        0.47920    0.70700    0.69320    1.000
    H8       H        0.23880    0.32860    0.30400    1.000
    H9       H        0.27240    0.23470    0.35600    1.000
    H10      H        0.03650    0.14570    0.26740    1.000
    H11      H        0.05830    0.28270    0.35840    1.000
    H12      H        0.09200    0.18890    0.41060    1.000
    H13      H        0.98150    0.74710    0.07320    1.000
    H14      H        0.97380    0.38700    0.74320    1.000
    H15      H        0.12180    0.48990    0.85580    1.000
    H16      H        0.12830    0.49550    0.67560    1.000
    H17      H        0.01500    0.53600    0.65440    1.000
    H18      H        0.16330    0.63910    0.76720    1.000
    H19      H        0.71400    0.98620    0.69320    1.000
    H20      H        0.56520    0.97540    0.30400    1.000
    H21      H        0.58360    0.12130    0.35600    1.000
    H22      H        0.73090    0.12170    0.26740    1.000
    H23      H        0.80010    0.07570    0.35840    1.000
    H24      H        0.81860    0.22170    0.41060    1.000
    H25      H        0.40830    0.67390    0.92680    1.000
    H26      H        0.73060    0.64380    0.25680    1.000
    H27      H        0.76600    0.63410    0.14420    1.000
    H28      H        0.95270    0.81990    0.32440    1.000
    H29      H        0.86060    0.88160    0.34560    1.000
    H30      H        0.89610    0.87190    0.23280    1.000
    H31      H        0.52080    0.29300    0.30680    1.000
    H32      H        0.76120    0.67140    0.69600    1.000
    H33      H        0.72760    0.76530    0.64400    1.000
    H34      H        0.96350    0.85430    0.73260    1.000
    H35      H        0.94170    0.71730    0.64160    1.000
    H36      H        0.90800    0.81110    0.58940    1.000
    H37      H        0.01850    0.25290    0.92680    1.000
    H38      H        0.02620    0.61300    0.25680    1.000
    H39      H        0.87820    0.51010    0.14420    1.000
    H40      H        0.87170    0.50450    0.32440    1.000
    H41      H        0.98500    0.46400    0.34560    1.000
    H42      H        0.83670    0.36090    0.23280    1.000
    H43      H        0.28600    0.01380    0.30680    1.000
    H44      H        0.43480    0.02460    0.69600    1.000
    H45      H        0.41640    0.87870    0.64400    1.000
    H46      H        0.26910    0.87830    0.73260    1.000
    H47      H        0.19990    0.92430    0.64160    1.000
    H48      H        0.18140    0.77830    0.58940    1.000
    C1       C        0.37840    0.31220    0.86340    1.000
    C2       C        0.53639    0.31849    0.99878    1.000
    C3       C        0.25150    0.31180    0.79540    1.000
    C4       C        0.12420    0.17220    0.71620    1.000
    C5       C        0.33341    0.41761    0.49302    1.000
    C6       C        0.44414    0.61434    0.64508    1.000
    C7       C        0.23820    0.29710    0.36720    1.000
    C8       C        0.09350    0.22200    0.34940    1.000
    C9       C        0.98500    0.55120    0.86340    1.000
    C10      C        0.96239    0.68029    0.99878    1.000
    C11      C        0.04390    0.48360    0.79540    1.000
    C12      C        0.09200    0.54400    0.71620    1.000
    C13      C        0.65961    0.07541    0.49302    1.000
    C14      C        0.70094    0.03074    0.64508    1.000
    C15      C        0.62900    0.07010    0.36720    1.000
    C16      C        0.75590    0.12740    0.34940    1.000
    C17      C        0.62160    0.68780    0.13660    1.000
    C18      C        0.46361    0.68151    0.00122    1.000
    C19      C        0.74850    0.68820    0.20460    1.000
    C20      C        0.87580    0.82780    0.28380    1.000
    C21      C        0.66659    0.58239    0.50698    1.000
    C22      C        0.55586    0.38566    0.35492    1.000
    C23      C        0.76180    0.70290    0.63280    1.000
    C24      C        0.90650    0.77800    0.65060    1.000
    C25      C        0.01500    0.44880    0.13660    1.000
    C26      C        0.03761    0.31971    0.00122    1.000
    C27      C        0.95610    0.51640    0.20460    1.000
    C28      C        0.90800    0.45600    0.28380    1.000
    C29      C        0.34039    0.92459    0.50698    1.000
    C30      C        0.29906    0.96926    0.35492    1.000
    C31      C        0.37100    0.92990    0.63280    1.000
    C32      C        0.24410    0.87260    0.65060    1.000
    N1       N        0.45849    0.29299    0.81218    1.000
    N2       N        0.56217    0.29747    0.90194    1.000
    N3       N        0.42274    0.32834    0.98088    1.000
    N4       N        0.40351    0.40971    0.59022    1.000
    N5       N        0.47662    0.53872    0.68984    1.000
    N6       N        0.35500    0.54490    0.52220    1.000
    N7       N        0.85369    0.51919    0.81218    1.000
    N8       N        0.83977    0.60447    0.90194    1.000
    N9       N        0.05814    0.65254    0.98088    1.000
    N10      N        0.68671    0.18051    0.59022    1.000
    N11      N        0.71322    0.15112    0.68984    1.000
    N12      N        0.66720    0.97730    0.52220    1.000
    N13      N        0.54151    0.70701    0.18782    1.000
    N14      N        0.43783    0.70253    0.09806    1.000
    N15      N        0.57726    0.67166    0.01912    1.000
    N16      N        0.59649    0.59029    0.40978    1.000
    N17      N        0.52338    0.46128    0.31016    1.000
    N18      N        0.64500    0.45510    0.47780    1.000
    N19      N        0.14631    0.48081    0.18782    1.000
    N20      N        0.16023    0.39553    0.09806    1.000
    N21      N        0.94186    0.34746    0.01912    1.000
    N22      N        0.31329    0.81949    0.40978    1.000
    N23      N        0.28678    0.84888    0.31016    1.000
    N24      N        0.33280    0.02270    0.47780    1.000
