# CIF file generated by openbabel 3.1.0, see https://openbabel.org
data_I
_chemical_name_common 'OQESAF_clean'
_cell_length_a 7.1564
_cell_length_b 13.0405
_cell_length_c 31.192
_cell_angle_alpha 88.2781
_cell_angle_beta 83.713
_cell_angle_gamma 74.0743
_space_group_name_H-M_alt 'P 1'
_space_group_name_Hall 'P 1'
loop_
    _symmetry_equiv_pos_as_xyz
    x,y,z
loop_
    _atom_site_label
    _atom_site_type_symbol
    _atom_site_fract_x
    _atom_site_fract_y
    _atom_site_fract_z
    _atom_site_occupancy
    Cd1      Cd       0.59868    0.80264    0.25000    1.000
    Cd2      Cd       0.40132    0.19736    0.75000    1.000
    H1       H        0.95500    0.28780    0.13950    1.000
    H2       H        0.64900    0.42580    0.14220    1.000
    H3       H        0.30820    0.72460    0.03800    1.000
    H4       H        0.40060    0.80020    0.96770    1.000
    H5       H        0.54090    0.66340    0.14410    1.000
    H6       H        0.27510    0.72500    0.19340    1.000
    H7       H        0.96900    0.57800    0.12890    1.000
    H8       H        0.23570    0.53020    0.07690    1.000
    H9       H        0.49610    0.27660    0.11800    1.000
    H10      H        0.61980    0.14440    0.16680    1.000
    H11      H        0.25810    0.97920    0.13420    1.000
    H12      H        0.13450    0.11140    0.08530    1.000
    H13      H        0.75720    0.28780    0.36050    1.000
    H14      H        0.92520    0.42580    0.35780    1.000
    H15      H        0.96720    0.72460    0.46200    1.000
    H16      H        0.79920    0.80020    0.53230    1.000
    H17      H        0.79570    0.66340    0.35590    1.000
    H18      H        0.99990    0.72500    0.30660    1.000
    H19      H        0.45300    0.57800    0.37110    1.000
    H20      H        0.23410    0.53020    0.42310    1.000
    H21      H        0.22730    0.27660    0.38200    1.000
    H22      H        0.23580    0.14440    0.33320    1.000
    H23      H        0.76270    0.97920    0.36580    1.000
    H24      H        0.75410    0.11140    0.41470    1.000
    H25      H        0.04500    0.71220    0.86050    1.000
    H26      H        0.35100    0.57420    0.85780    1.000
    H27      H        0.69180    0.27540    0.96200    1.000
    H28      H        0.59940    0.19980    0.03230    1.000
    H29      H        0.45910    0.33660    0.85590    1.000
    H30      H        0.72490    0.27500    0.80660    1.000
    H31      H        0.03100    0.42200    0.87110    1.000
    H32      H        0.76430    0.46980    0.92310    1.000
    H33      H        0.50390    0.72340    0.88200    1.000
    H34      H        0.38020    0.85560    0.83320    1.000
    H35      H        0.74190    0.02080    0.86580    1.000
    H36      H        0.86550    0.88860    0.91470    1.000
    H37      H        0.24280    0.71220    0.63950    1.000
    H38      H        0.07480    0.57420    0.64220    1.000
    H39      H        0.03280    0.27540    0.53800    1.000
    H40      H        0.20080    0.19980    0.46770    1.000
    H41      H        0.20430    0.33660    0.64410    1.000
    H42      H        0.00010    0.27500    0.69340    1.000
    H43      H        0.54700    0.42200    0.62890    1.000
    H44      H        0.76590    0.46980    0.57690    1.000
    H45      H        0.77270    0.72340    0.61800    1.000
    H46      H        0.76420    0.85560    0.66680    1.000
    H47      H        0.23730    0.02080    0.63420    1.000
    H48      H        0.24590    0.88860    0.58530    1.000
    Pd1      Pd       0.00000    0.50000    0.00000    1.000
    Pd2      Pd       0.50000    0.50000    0.50000    1.000
    C1       C        0.02780    0.35640    0.07940    1.000
    C2       C        0.91690    0.34020    0.11890    1.000
    C3       C        0.74910    0.41580    0.11970    1.000
    C4       C        0.74170    0.47860    0.08220    1.000
    C5       C        0.58840    0.56020    0.07050    1.000
    C6       C        0.58350    0.61700    0.03310    1.000
    C7       C        0.42850    0.70100    0.02150    1.000
    C8       C        0.47720    0.74360    0.98240    1.000
    C9       C        0.67500    0.68000    0.96920    1.000
    C10      C        0.21690    0.30020    0.06710    1.000
    C11      C        0.41000    0.59420    0.10350    1.000
    C12      C        0.42320    0.64960    0.14010    1.000
    C13      C        0.26490    0.68420    0.17020    1.000
    C14      C        0.09750    0.66100    0.16690    1.000
    C15      C        0.08180    0.59840    0.13140    1.000
    C16      C        0.24440    0.56920    0.10070    1.000
    C17      C        0.92450    0.69700    0.19860    1.000
    C18      C        0.30340    0.20720    0.09680    1.000
    C19      C        0.44850    0.21700    0.12120    1.000
    C20      C        0.52210    0.13780    0.15050    1.000
    C21      C        0.45170    0.04860    0.15530    1.000
    C22      C        0.30560    0.03880    0.13090    1.000
    C23      C        0.23200    0.11800    0.10170    1.000
    C24      C        0.51820    0.95960    0.18850    1.000
    C25      C        0.61580    0.35640    0.42060    1.000
    C26      C        0.74290    0.34020    0.38110    1.000
    C27      C        0.83510    0.41580    0.38030    1.000
    C28      C        0.77970    0.47860    0.41780    1.000
    C29      C        0.85140    0.56020    0.42950    1.000
    C30      C        0.79950    0.61700    0.46690    1.000
    C31      C        0.87050    0.70100    0.47850    1.000
    C32      C        0.77920    0.74360    0.51760    1.000
    C33      C        0.64500    0.68000    0.53080    1.000
    C34      C        0.48290    0.30020    0.43290    1.000
    C35      C        0.99580    0.59420    0.39650    1.000
    C36      C        0.92720    0.64960    0.35990    1.000
    C37      C        0.05090    0.68420    0.32980    1.000
    C38      C        0.24150    0.66100    0.33310    1.000
    C39      C        0.31980    0.59840    0.36860    1.000
    C40      C        0.18640    0.56920    0.39930    1.000
    C41      C        0.37850    0.69700    0.30140    1.000
    C42      C        0.48940    0.20720    0.40320    1.000
    C43      C        0.33450    0.21700    0.37880    1.000
    C44      C        0.34010    0.13780    0.34950    1.000
    C45      C        0.49970    0.04860    0.34470    1.000
    C46      C        0.65560    0.03880    0.36910    1.000
    C47      C        0.65000    0.11800    0.39830    1.000
    C48      C        0.52220    0.95960    0.31150    1.000
    C49      C        0.97220    0.64360    0.92060    1.000
    C50      C        0.08310    0.65980    0.88110    1.000
    C51      C        0.25090    0.58420    0.88030    1.000
    C52      C        0.25830    0.52140    0.91780    1.000
    C53      C        0.41160    0.43980    0.92950    1.000
    C54      C        0.41650    0.38300    0.96690    1.000
    C55      C        0.57150    0.29900    0.97850    1.000
    C56      C        0.52280    0.25640    0.01760    1.000
    C57      C        0.32500    0.32000    0.03080    1.000
    C58      C        0.78310    0.69980    0.93290    1.000
    C59      C        0.59000    0.40580    0.89650    1.000
    C60      C        0.57680    0.35040    0.85990    1.000
    C61      C        0.73510    0.31580    0.82980    1.000
    C62      C        0.90250    0.33900    0.83310    1.000
    C63      C        0.91820    0.40160    0.86860    1.000
    C64      C        0.75560    0.43080    0.89930    1.000
    C65      C        0.07550    0.30300    0.80140    1.000
    C66      C        0.69660    0.79280    0.90320    1.000
    C67      C        0.55150    0.78300    0.87880    1.000
    C68      C        0.47790    0.86220    0.84950    1.000
    C69      C        0.54830    0.95140    0.84470    1.000
    C70      C        0.69440    0.96120    0.86910    1.000
    C71      C        0.76800    0.88200    0.89830    1.000
    C72      C        0.48180    0.04040    0.81150    1.000
    C73      C        0.38420    0.64360    0.57940    1.000
    C74      C        0.25710    0.65980    0.61890    1.000
    C75      C        0.16490    0.58420    0.61970    1.000
    C76      C        0.22030    0.52140    0.58220    1.000
    C77      C        0.14860    0.43980    0.57050    1.000
    C78      C        0.20050    0.38300    0.53310    1.000
    C79      C        0.12950    0.29900    0.52150    1.000
    C80      C        0.22080    0.25640    0.48240    1.000
    C81      C        0.35500    0.32000    0.46920    1.000
    C82      C        0.51710    0.69980    0.56710    1.000
    C83      C        0.00420    0.40580    0.60350    1.000
    C84      C        0.07280    0.35040    0.64010    1.000
    C85      C        0.94910    0.31580    0.67020    1.000
    C86      C        0.75850    0.33900    0.66690    1.000
    C87      C        0.68020    0.40160    0.63140    1.000
    C88      C        0.81360    0.43080    0.60070    1.000
    C89      C        0.62150    0.30300    0.69860    1.000
    C90      C        0.51060    0.79280    0.59680    1.000
    C91      C        0.66550    0.78300    0.62120    1.000
    C92      C        0.65990    0.86220    0.65050    1.000
    C93      C        0.50030    0.95140    0.65530    1.000
    C94      C        0.34440    0.96120    0.63090    1.000
    C95      C        0.35000    0.88200    0.60170    1.000
    C96      C        0.47780    0.04040    0.68850    1.000
    N1       N        0.91720    0.43720    0.05760    1.000
    N2       N        0.74270    0.60160    0.00100    1.000
    N3       N        0.64560    0.43720    0.44240    1.000
    N4       N        0.65570    0.60160    0.49900    1.000
    N5       N        0.08280    0.56280    0.94240    1.000
    N6       N        0.25730    0.39840    0.99900    1.000
    N7       N        0.35440    0.56280    0.55760    1.000
    N8       N        0.34430    0.39840    0.50100    1.000
    O1       O        0.93410    0.75840    0.22750    1.000
    O2       O        0.77190    0.66980    0.19550    1.000
    O3       O        0.66160    0.97280    0.20090    1.000
    O4       O        0.41640    0.89320    0.19930    1.000
    O5       O        0.30750    0.75840    0.27250    1.000
    O6       O        0.55830    0.66980    0.30450    1.000
    O7       O        0.36560    0.97280    0.29910    1.000
    O8       O        0.69040    0.89320    0.30070    1.000
    O9       O        0.06590    0.24160    0.77250    1.000
    O10      O        0.22810    0.33020    0.80450    1.000
    O11      O        0.33840    0.02720    0.79910    1.000
    O12      O        0.58360    0.10680    0.80070    1.000
    O13      O        0.69250    0.24160    0.72750    1.000
    O14      O        0.44170    0.33020    0.69550    1.000
    O15      O        0.63440    0.02720    0.70090    1.000
    O16      O        0.30960    0.10680    0.69930    1.000
