# CIF file generated by openbabel 3.1.0, see https://openbabel.org
data_I
_chemical_name_common 'image0'
_cell_length_a 12.659
_cell_length_b 8.247
_cell_length_c 23.794
_cell_angle_alpha 90
_cell_angle_beta 105.823
_cell_angle_gamma 90
_space_group_name_H-M_alt 'P 1'
_space_group_name_Hall 'P 1'
loop_
    _symmetry_equiv_pos_as_xyz
    x,y,z
loop_
    _atom_site_label
    _atom_site_type_symbol
    _atom_site_fract_x
    _atom_site_fract_y
    _atom_site_fract_z
    _atom_site_occupancy
    Bi1      Bi       0.22648    0.67332    0.13127    1.000
    Nd1      Nd       0.71030    0.49915    0.11515    1.000
    O1       O        0.06880    0.60220    0.16026    1.000
    O2       O        0.90610    0.48500    0.12891    1.000
    O3       O        0.19780    0.59340    0.02762    1.000
    O4       O        0.26400    0.40740    0.97860    1.000
    O5       O        0.24360    0.79740    0.22939    1.000
    O6       O        0.27500    0.75710    0.32517    1.000
    O7       O        0.40120    0.57200    0.12152    1.000
    O8       O        0.57640    0.54470    0.17250    1.000
    O9       O        0.75700    0.79210    0.12130    1.000
    H1       H        0.69390    0.82220    0.09780    1.000
    H2       H        0.79580    0.88810    0.14360    1.000
    O10      O        0.54980    0.67600    0.05560    1.000
    H3       H        0.56920    0.77550    0.06280    1.000
    H4       H        0.50130    0.64640    0.07530    1.000
    O11      O        0.38110    0.47460    0.45610    1.000
    H5       H        0.32440    0.54730    0.43580    1.000
    H6       H        0.36580    0.43490    0.48580    1.000
    N1       N        0.16920    0.38590    0.10917    1.000
    N2       N        0.32780    0.50180    0.21453    1.000
    C1       C        0.20340    0.28500    0.16306    1.000
    H7       H        0.20020    0.17120    0.15230    1.000
    H8       H        0.15290    0.30240    0.18660    1.000
    C2       C        0.31830    0.32640    0.19843    1.000
    H9       H        0.33740    0.26120    0.23370    1.000
    H10      H        0.36960    0.30090    0.17600    1.000
    C3       C        0.04760    0.39280    0.08910    1.000
    H11      H        0.01790    0.28430    0.08890    1.000
    H12      H        0.02480    0.43440    0.04950    1.000
    C4       C        0.00320    0.50040    0.12860    1.000
    C5       C        0.21510    0.32040    0.06227    1.000
    H13      H        0.16730    0.23510    0.04150    1.000
    H14      H        0.28660    0.27310    0.07990    1.000
    C6       C        0.22630    0.45070    0.01927    1.000
    C7       C        0.29080    0.53250    0.26742    1.000
    H15      H        0.34660    0.49500    0.30150    1.000
    H16      H        0.22420    0.47130    0.26490    1.000
    C8       C        0.26880    0.71040    0.27460    1.000
    C9       C        0.44330    0.55440    0.22516    1.000
    H17      H        0.49070    0.48100    0.25270    1.000
    H18      H        0.45190    0.66200    0.24230    1.000
    C10      C        0.47730    0.55690    0.16880    1.000
    N3       N        0.35620    0.34510    0.42410    1.000
    O12      O        0.26100    0.32600    0.38790    1.000
    O13      O        0.42470    0.22700    0.43220    1.000
    O14      O        0.42100    0.50500    0.46530    1.000
    Bi2      Bi       0.77352    0.17332    0.36874    1.000
    Nd2      Nd       0.28970    0.99915    0.38485    1.000
    O15      O        0.93120    0.10220    0.33974    1.000
    O16      O        0.09390    0.98500    0.37109    1.000
    O17      O        0.80220    0.09340    0.47238    1.000
    O18      O        0.73600    0.90740    0.52140    1.000
    O19      O        0.75640    0.29740    0.27061    1.000
    O20      O        0.72500    0.25710    0.17483    1.000
    O21      O        0.59880    0.07200    0.37848    1.000
    O22      O        0.42360    0.04470    0.32750    1.000
    O23      O        0.24300    0.29210    0.37870    1.000
    H19      H        0.30610    0.32220    0.40220    1.000
    H20      H        0.20420    0.38810    0.35640    1.000
    O24      O        0.45020    0.17600    0.44440    1.000
    H21      H        0.43080    0.27550    0.43720    1.000
    H22      H        0.49870    0.14640    0.42470    1.000
    O25      O        0.61890    0.97460    0.04390    1.000
    H23      H        0.67560    0.04730    0.06420    1.000
    H24      H        0.63420    0.93490    0.01420    1.000
    N4       N        0.83080    0.88590    0.39083    1.000
    N5       N        0.67220    0.00180    0.28547    1.000
    C11      C        0.79660    0.78500    0.33694    1.000
    H25      H        0.79980    0.67120    0.34770    1.000
    H26      H        0.84710    0.80240    0.31340    1.000
    C12      C        0.68170    0.82640    0.30157    1.000
    H27      H        0.66260    0.76120    0.26630    1.000
    H28      H        0.63040    0.80090    0.32400    1.000
    C13      C        0.95240    0.89280    0.41090    1.000
    H29      H        0.98210    0.78430    0.41110    1.000
    H30      H        0.97520    0.93440    0.45050    1.000
    C14      C        0.99680    0.00040    0.37140    1.000
    C15      C        0.78490    0.82040    0.43773    1.000
    H31      H        0.83270    0.73510    0.45850    1.000
    H32      H        0.71340    0.77310    0.42010    1.000
    C16      C        0.77370    0.95070    0.48073    1.000
    C17      C        0.70920    0.03250    0.23258    1.000
    H33      H        0.65340    0.99500    0.19850    1.000
    H34      H        0.77580    0.97130    0.23510    1.000
    C18      C        0.73120    0.21040    0.22540    1.000
    C19      C        0.55670    0.05440    0.27484    1.000
    H35      H        0.50930    0.98100    0.24730    1.000
    H36      H        0.54810    0.16200    0.25770    1.000
    C20      C        0.52270    0.05690    0.33120    1.000
    N6       N        0.64380    0.84510    0.07590    1.000
    O26      O        0.73900    0.82600    0.11210    1.000
    O27      O        0.57530    0.72700    0.06780    1.000
    O28      O        0.57900    0.00500    0.03470    1.000
    Bi3      Bi       0.77352    0.32668    0.86874    1.000
    Nd3      Nd       0.28970    0.50085    0.88485    1.000
    O29      O        0.93120    0.39780    0.83974    1.000
    O30      O        0.09390    0.51500    0.87109    1.000
    O31      O        0.80220    0.40660    0.97238    1.000
    O32      O        0.73600    0.59260    0.02140    1.000
    O33      O        0.75640    0.20260    0.77061    1.000
    O34      O        0.72500    0.24290    0.67483    1.000
    O35      O        0.59880    0.42800    0.87848    1.000
    O36      O        0.42360    0.45530    0.82750    1.000
    O37      O        0.24300    0.20790    0.87870    1.000
    H37      H        0.30610    0.17780    0.90220    1.000
    H38      H        0.20420    0.11190    0.85640    1.000
    O38      O        0.45020    0.32400    0.94440    1.000
    H39      H        0.43080    0.22450    0.93720    1.000
    H40      H        0.49870    0.35360    0.92470    1.000
    O39      O        0.61890    0.52540    0.54390    1.000
    H41      H        0.67560    0.45270    0.56420    1.000
    H42      H        0.63420    0.56510    0.51420    1.000
    N7       N        0.83080    0.61410    0.89083    1.000
    N8       N        0.67220    0.49820    0.78547    1.000
    C21      C        0.79660    0.71500    0.83694    1.000
    H43      H        0.79980    0.82880    0.84770    1.000
    H44      H        0.84710    0.69760    0.81340    1.000
    C22      C        0.68170    0.67360    0.80157    1.000
    H45      H        0.66260    0.73880    0.76630    1.000
    H46      H        0.63040    0.69910    0.82400    1.000
    C23      C        0.95240    0.60720    0.91090    1.000
    H47      H        0.98210    0.71570    0.91110    1.000
    H48      H        0.97520    0.56560    0.95050    1.000
    C24      C        0.99680    0.49960    0.87140    1.000
    C25      C        0.78490    0.67960    0.93773    1.000
    H49      H        0.83270    0.76490    0.95850    1.000
    H50      H        0.71340    0.72690    0.92010    1.000
    C26      C        0.77370    0.54930    0.98073    1.000
    C27      C        0.70920    0.46750    0.73258    1.000
    H51      H        0.65340    0.50500    0.69850    1.000
    H52      H        0.77580    0.52870    0.73510    1.000
    C28      C        0.73120    0.28960    0.72540    1.000
    C29      C        0.55670    0.44560    0.77484    1.000
    H53      H        0.50930    0.51900    0.74730    1.000
    H54      H        0.54810    0.33800    0.75770    1.000
    C30      C        0.52270    0.44310    0.83120    1.000
    N9       N        0.64380    0.65490    0.57590    1.000
    O40      O        0.73900    0.67400    0.61210    1.000
    O41      O        0.57530    0.77300    0.56780    1.000
    O42      O        0.57900    0.49500    0.53470    1.000
    Bi4      Bi       0.22648    0.82668    0.63127    1.000
    Nd4      Nd       0.71030    0.00085    0.61515    1.000
    O43      O        0.06880    0.89780    0.66026    1.000
    O44      O        0.90610    0.01500    0.62891    1.000
    O45      O        0.19780    0.90660    0.52762    1.000
    O46      O        0.26400    0.09260    0.47860    1.000
    O47      O        0.24360    0.70260    0.72939    1.000
    O48      O        0.27500    0.74290    0.82517    1.000
    O49      O        0.40120    0.92800    0.62152    1.000
    O50      O        0.57640    0.95530    0.67250    1.000
    O51      O        0.75700    0.70790    0.62130    1.000
    H55      H        0.69390    0.67780    0.59780    1.000
    H56      H        0.79580    0.61190    0.64360    1.000
    O52      O        0.54980    0.82400    0.55560    1.000
    H57      H        0.56920    0.72450    0.56280    1.000
    H58      H        0.50130    0.85360    0.57530    1.000
    O53      O        0.38110    0.02540    0.95610    1.000
    H59      H        0.32440    0.95270    0.93580    1.000
    H60      H        0.36580    0.06510    0.98580    1.000
    N10      N        0.16920    0.11410    0.60917    1.000
    N11      N        0.32780    0.99820    0.71453    1.000
    C31      C        0.20340    0.21500    0.66306    1.000
    H61      H        0.20020    0.32880    0.65230    1.000
    H62      H        0.15290    0.19760    0.68660    1.000
    C32      C        0.31830    0.17360    0.69843    1.000
    H63      H        0.33740    0.23880    0.73370    1.000
    H64      H        0.36960    0.19910    0.67600    1.000
    C33      C        0.04760    0.10720    0.58910    1.000
    H65      H        0.01790    0.21570    0.58890    1.000
    H66      H        0.02480    0.06560    0.54950    1.000
    C34      C        0.00320    0.99960    0.62860    1.000
    C35      C        0.21510    0.17960    0.56227    1.000
    H67      H        0.16730    0.26490    0.54150    1.000
    H68      H        0.28660    0.22690    0.57990    1.000
    C36      C        0.22630    0.04930    0.51927    1.000
    C37      C        0.29080    0.96750    0.76742    1.000
    H69      H        0.34660    0.00500    0.80150    1.000
    H70      H        0.22420    0.02870    0.76490    1.000
    C38      C        0.26880    0.78960    0.77460    1.000
    C39      C        0.44330    0.94560    0.72516    1.000
    H71      H        0.49070    0.01900    0.75270    1.000
    H72      H        0.45190    0.83800    0.74230    1.000
    C40      C        0.47730    0.94310    0.66880    1.000
    N12      N        0.35620    0.15490    0.92410    1.000
    O54      O        0.26100    0.17400    0.88790    1.000
    O55      O        0.42470    0.27300    0.93220    1.000
    O56      O        0.42100    0.99500    0.96530    1.000
