# CIF file generated by openbabel 3.1.0, see https://openbabel.org
data_I
_chemical_name_common 'VEFLUP_clean'
_cell_length_a 8.002
_cell_length_b 9.091
_cell_length_c 12.935
_cell_angle_alpha 107.805
_cell_angle_beta 100.042
_cell_angle_gamma 104.106
_space_group_name_H-M_alt 'P 1'
_space_group_name_Hall 'P 1'
loop_
    _symmetry_equiv_pos_as_xyz
    x,y,z
loop_
    _atom_site_label
    _atom_site_type_symbol
    _atom_site_fract_x
    _atom_site_fract_y
    _atom_site_fract_z
    _atom_site_occupancy
    Co1      Co       0.24973    0.50272    0.49989    1.000
    Co2      Co       0.74974    0.50250    0.49979    1.000
    H1       H        0.57410    0.68160    0.58600    1.000
    H2       H        0.53810    0.66380    0.47580    1.000
    H3       H        0.93030    0.32890    0.41210    1.000
    H4       H        0.96490    0.34260    0.52130    1.000
    H5       H        0.63090    0.99480    0.91450    1.000
    H6       H        0.59750    0.13590    0.09050    1.000
    H7       H        0.10130    0.78280    0.79760    1.000
    H8       H        0.40120    0.22990    0.20430    1.000
    H9       H        0.86990    0.02220    0.07840    1.000
    H10      H        0.89960    0.86680    0.91830    1.000
    H11      H        0.95040    0.26630    0.84140    1.000
    H12      H        0.92350    0.29730    0.01710    1.000
    H13      H        0.67810    0.58080    0.82190    1.000
    H14      H        0.80460    0.41720    0.17660    1.000
    H15      H        0.54840    0.73700    0.16330    1.000
    H16      H        0.57430    0.71010    0.98520    1.000
    C1       C        0.39790    0.77120    0.72931    1.000
    C2       C        0.36880    0.87056    0.83982    1.000
    C3       C        0.51740    0.98030    0.92606    1.000
    C4       C        0.49790    0.06960    0.03045    1.000
    C5       C        0.32600    0.05626    0.04170    1.000
    C6       C        0.17510    0.94580    0.95289    1.000
    C7       C        0.20040    0.85620    0.85556    1.000
    C8       C        0.30190    0.15600    0.14674    1.000
    C9       C        0.13510    0.14120    0.16072    1.000
    C10      C        0.98430    0.03010    0.06970    1.000
    C11      C        0.00200    0.93870    0.97425    1.000
    C12      C        0.10550    0.23200    0.26728    1.000
    C13      C        0.83780    0.40610    0.69767    1.000
    C14      C        0.82110    0.42360    0.81164    1.000
    C15      C        0.89160    0.33720    0.87396    1.000
    C16      C        0.87550    0.35540    0.97884    1.000
    C17      C        0.78870    0.45920    0.03047    1.000
    C18      C        0.71570    0.54570    0.97099    1.000
    C19      C        0.72970    0.52580    0.86140    1.000
    C20      C        0.76320    0.47810    0.13810    1.000
    C21      C        0.68100    0.58150    0.18651    1.000
    C22      C        0.60800    0.66810    0.12911    1.000
    C23      C        0.62330    0.65230    0.02333    1.000
    C24      C        0.66350    0.59900    0.30560    1.000
    O1       O        0.26002    0.67553    0.65219    1.000
    O2       O        0.55558    0.79871    0.72401    1.000
    O3       O        0.24006    0.33154    0.34642    1.000
    O4       O        0.95080    0.21440    0.27592    1.000
    O5       O        0.79220    0.50655    0.65741    1.000
    O6       O        0.90100    0.30025    0.64647    1.000
    O7       O        0.71350    0.50497    0.34257    1.000
    O8       O        0.60270    0.70765    0.35301    1.000
    O9       O        0.53562    0.61042    0.51953    1.000
    O10      O        0.96811    0.39825    0.47911    1.000
