# CIF file generated by openbabel 3.1.0, see https://openbabel.org
data_I
_chemical_name_common 'image0'
_cell_length_a 27.6213
_cell_length_b 10.5121
_cell_length_c 14.7614
_cell_angle_alpha 90
_cell_angle_beta 117.048
_cell_angle_gamma 90
_space_group_name_H-M_alt 'P 1'
_space_group_name_Hall 'P 1'
loop_
    _symmetry_equiv_pos_as_xyz
    x,y,z
loop_
    _atom_site_label
    _atom_site_type_symbol
    _atom_site_fract_x
    _atom_site_fract_y
    _atom_site_fract_z
    _atom_site_occupancy
    Zn1      Zn       0.79092    0.64000    0.53548    1.000
    O1       O        0.83409    0.73650    0.66800    1.000
    O2       O        0.83089    0.25050    0.97500    1.000
    O3       O        0.76639    0.10160    0.91530    1.000
    O4       O        0.76970    0.88740    0.61160    1.000
    N1       N        0.82725    0.47210    0.54320    1.000
    C1       C        0.84385    0.07060    0.89160    1.000
    C2       C        0.81615    0.99790    0.80480    1.000
    H1       H        0.77850    0.00320    0.76880    1.000
    N2       N        0.85820    0.27710    0.57380    1.000
    C3       C        0.84471    0.91680    0.77150    1.000
    C4       C        0.81110    0.14880    0.93080    1.000
    C5       C        0.81368    0.84010    0.67530    1.000
    N3       N        0.98600    0.96680    0.96360    1.000
    C6       C        0.90030    0.06760    0.94490    1.000
    H2       H        0.91870    0.12000    0.00100    1.000
    C7       C        0.90110    0.90660    0.82750    1.000
    H3       H        0.92010    0.84850    0.80830    1.000
    C8       C        0.83590    0.37170    0.60260    1.000
    C9       C        0.92890    0.98420    0.91260    1.000
    C10      C        0.87650    0.15250    0.62310    1.000
    H4       H        0.85890    0.08530    0.57390    1.000
    H5       H        0.86630    0.14320    0.67750    1.000
    C11      C        0.84470    0.43930    0.47230    1.000
    H6       H        0.84340    0.49170    0.42050    1.000
    C12      C        0.82180    0.36270    0.68900    1.000
    H7       H        0.81710    0.44770    0.70930    1.000
    H8       H        0.85160    0.32280    0.74660    1.000
    C13      C        0.86390    0.31860    0.49030    1.000
    H9       H        0.87800    0.27290    0.45380    1.000
    C14      C        0.76970    0.28570    0.66010    1.000
    H10      H        0.74010    0.32500    0.60300    1.000
    H11      H        0.76160    0.28340    0.71670    1.000
    H12      H        0.77480    0.20060    0.64240    1.000
    C15      C        0.93780    0.14020    0.66610    1.000
    H13      H        0.94930    0.06070    0.70330    1.000
    H14      H        0.94710    0.13670    0.61020    1.000
    C16      C        0.96880    0.24820    0.73610    1.000
    H15      H        0.96510    0.24210    0.79820    1.000
    H16      H        0.95280    0.32830    0.70360    1.000
    O5       O        0.00190    0.87650    0.92130    1.000
    Zn2      Zn       0.29092    0.14000    0.53548    1.000
    O6       O        0.33409    0.23650    0.66800    1.000
    O7       O        0.33089    0.75050    0.97500    1.000
    O8       O        0.26639    0.60160    0.91530    1.000
    O9       O        0.26970    0.38740    0.61160    1.000
    N4       N        0.32725    0.97210    0.54320    1.000
    C17      C        0.34385    0.57060    0.89160    1.000
    C18      C        0.31615    0.49790    0.80480    1.000
    H17      H        0.27850    0.50320    0.76880    1.000
    N5       N        0.35820    0.77710    0.57380    1.000
    C19      C        0.34471    0.41680    0.77150    1.000
    C20      C        0.31110    0.64880    0.93080    1.000
    C21      C        0.31368    0.34010    0.67530    1.000
    N6       N        0.48600    0.46680    0.96360    1.000
    C22      C        0.40030    0.56760    0.94490    1.000
    H18      H        0.41870    0.62000    0.00100    1.000
    C23      C        0.40110    0.40660    0.82750    1.000
    H19      H        0.42010    0.34850    0.80830    1.000
    C24      C        0.33590    0.87170    0.60260    1.000
    C25      C        0.42890    0.48420    0.91260    1.000
    C26      C        0.37650    0.65250    0.62310    1.000
    H20      H        0.35890    0.58530    0.57390    1.000
    H21      H        0.36630    0.64320    0.67750    1.000
    C27      C        0.34470    0.93930    0.47230    1.000
    H22      H        0.34340    0.99170    0.42050    1.000
    C28      C        0.32180    0.86270    0.68900    1.000
    H23      H        0.31710    0.94770    0.70930    1.000
    H24      H        0.35160    0.82280    0.74660    1.000
    C29      C        0.36390    0.81860    0.49030    1.000
    H25      H        0.37800    0.77290    0.45380    1.000
    C30      C        0.26970    0.78570    0.66010    1.000
    H26      H        0.24010    0.82500    0.60300    1.000
    H27      H        0.26160    0.78340    0.71670    1.000
    H28      H        0.27480    0.70060    0.64240    1.000
    C31      C        0.43780    0.64020    0.66610    1.000
    H29      H        0.44930    0.56070    0.70330    1.000
    H30      H        0.44710    0.63670    0.61020    1.000
    C32      C        0.46880    0.74820    0.73610    1.000
    H31      H        0.46510    0.74210    0.79820    1.000
    H32      H        0.45280    0.82830    0.70360    1.000
    O10      O        0.50190    0.37650    0.92130    1.000
    Zn3      Zn       0.20908    0.64000    0.96452    1.000
    O11      O        0.16591    0.73650    0.83200    1.000
    O12      O        0.16911    0.25050    0.52500    1.000
    O13      O        0.23361    0.10160    0.58470    1.000
    O14      O        0.23030    0.88740    0.88840    1.000
    N7       N        0.17275    0.47210    0.95680    1.000
    C33      C        0.15615    0.07060    0.60840    1.000
    C34      C        0.18385    0.99790    0.69520    1.000
    H33      H        0.22150    0.00320    0.73120    1.000
    N8       N        0.14180    0.27710    0.92620    1.000
    C35      C        0.15529    0.91680    0.72850    1.000
    C36      C        0.18890    0.14880    0.56920    1.000
    C37      C        0.18632    0.84010    0.82470    1.000
    N9       N        0.01400    0.96680    0.53640    1.000
    C38      C        0.09970    0.06760    0.55510    1.000
    H34      H        0.08130    0.12000    0.49900    1.000
    C39      C        0.09890    0.90660    0.67250    1.000
    H35      H        0.07990    0.84850    0.69170    1.000
    C40      C        0.16410    0.37170    0.89740    1.000
    C41      C        0.07110    0.98420    0.58740    1.000
    C42      C        0.12350    0.15250    0.87690    1.000
    H36      H        0.14110    0.08530    0.92610    1.000
    H37      H        0.13370    0.14320    0.82250    1.000
    C43      C        0.15530    0.43930    0.02770    1.000
    H38      H        0.15660    0.49170    0.07950    1.000
    C44      C        0.17820    0.36270    0.81100    1.000
    H39      H        0.18290    0.44770    0.79070    1.000
    H40      H        0.14840    0.32280    0.75340    1.000
    C45      C        0.13610    0.31860    0.00970    1.000
    H41      H        0.12200    0.27290    0.04620    1.000
    C46      C        0.23030    0.28570    0.83990    1.000
    H42      H        0.25990    0.32500    0.89700    1.000
    H43      H        0.23840    0.28340    0.78330    1.000
    H44      H        0.22520    0.20060    0.85760    1.000
    C47      C        0.06220    0.14020    0.83390    1.000
    H45      H        0.05070    0.06070    0.79670    1.000
    H46      H        0.05290    0.13670    0.88980    1.000
    C48      C        0.03120    0.24820    0.76390    1.000
    H47      H        0.03490    0.24210    0.70180    1.000
    H48      H        0.04720    0.32830    0.79640    1.000
    O15      O        0.99810    0.87650    0.57870    1.000
    Zn4      Zn       0.70908    0.14000    0.96452    1.000
    O16      O        0.66591    0.23650    0.83200    1.000
    O17      O        0.66911    0.75050    0.52500    1.000
    O18      O        0.73361    0.60160    0.58470    1.000
    O19      O        0.73030    0.38740    0.88840    1.000
    N10      N        0.67275    0.97210    0.95680    1.000
    C49      C        0.65615    0.57060    0.60840    1.000
    C50      C        0.68385    0.49790    0.69520    1.000
    H49      H        0.72150    0.50320    0.73120    1.000
    N11      N        0.64180    0.77710    0.92620    1.000
    C51      C        0.65529    0.41680    0.72850    1.000
    C52      C        0.68890    0.64880    0.56920    1.000
    C53      C        0.68632    0.34010    0.82470    1.000
    N12      N        0.51400    0.46680    0.53640    1.000
    C54      C        0.59970    0.56760    0.55510    1.000
    H50      H        0.58130    0.62000    0.49900    1.000
    C55      C        0.59890    0.40660    0.67250    1.000
    H51      H        0.57990    0.34850    0.69170    1.000
    C56      C        0.66410    0.87170    0.89740    1.000
    C57      C        0.57110    0.48420    0.58740    1.000
    C58      C        0.62350    0.65250    0.87690    1.000
    H52      H        0.64110    0.58530    0.92610    1.000
    H53      H        0.63370    0.64320    0.82250    1.000
    C59      C        0.65530    0.93930    0.02770    1.000
    H54      H        0.65660    0.99170    0.07950    1.000
    C60      C        0.67820    0.86270    0.81100    1.000
    H55      H        0.68290    0.94770    0.79070    1.000
    H56      H        0.64840    0.82280    0.75340    1.000
    C61      C        0.63610    0.81860    0.00970    1.000
    H57      H        0.62200    0.77290    0.04620    1.000
    C62      C        0.73030    0.78570    0.83990    1.000
    H58      H        0.75990    0.82500    0.89700    1.000
    H59      H        0.73840    0.78340    0.78330    1.000
    H60      H        0.72520    0.70060    0.85760    1.000
    C63      C        0.56220    0.64020    0.83390    1.000
    H61      H        0.55070    0.56070    0.79670    1.000
    H62      H        0.55290    0.63670    0.88980    1.000
    C64      C        0.53120    0.74820    0.76390    1.000
    H63      H        0.53490    0.74210    0.70180    1.000
    H64      H        0.54720    0.82830    0.79640    1.000
    O20      O        0.49810    0.37650    0.57870    1.000
    Zn5      Zn       0.20908    0.36000    0.46452    1.000
    O21      O        0.16591    0.26350    0.33200    1.000
    O22      O        0.16911    0.74950    0.02500    1.000
    O23      O        0.23361    0.89840    0.08470    1.000
    O24      O        0.23030    0.11260    0.38840    1.000
    N13      N        0.17275    0.52790    0.45680    1.000
    C65      C        0.15615    0.92940    0.10840    1.000
    C66      C        0.18385    0.00210    0.19520    1.000
    H65      H        0.22150    0.99680    0.23120    1.000
    N14      N        0.14180    0.72290    0.42620    1.000
    C67      C        0.15529    0.08320    0.22850    1.000
    C68      C        0.18890    0.85120    0.06920    1.000
    C69      C        0.18632    0.15990    0.32470    1.000
    N15      N        0.01400    0.03320    0.03640    1.000
    C70      C        0.09970    0.93240    0.05510    1.000
    H66      H        0.08130    0.88000    0.99900    1.000
    C71      C        0.09890    0.09340    0.17250    1.000
    H67      H        0.07990    0.15150    0.19170    1.000
    C72      C        0.16410    0.62830    0.39740    1.000
    C73      C        0.07110    0.01580    0.08740    1.000
    C74      C        0.12350    0.84750    0.37690    1.000
    H68      H        0.14110    0.91470    0.42610    1.000
    H69      H        0.13370    0.85680    0.32250    1.000
    C75      C        0.15530    0.56070    0.52770    1.000
    H70      H        0.15660    0.50830    0.57950    1.000
    C76      C        0.17820    0.63730    0.31100    1.000
    H71      H        0.18290    0.55230    0.29070    1.000
    H72      H        0.14840    0.67720    0.25340    1.000
    C77      C        0.13610    0.68140    0.50970    1.000
    H73      H        0.12200    0.72710    0.54620    1.000
    C78      C        0.23030    0.71430    0.33990    1.000
    H74      H        0.25990    0.67500    0.39700    1.000
    H75      H        0.23840    0.71660    0.28330    1.000
    H76      H        0.22520    0.79940    0.35760    1.000
    C79      C        0.06220    0.85980    0.33390    1.000
    H77      H        0.05070    0.93930    0.29670    1.000
    H78      H        0.05290    0.86330    0.38980    1.000
    C80      C        0.03120    0.75180    0.26390    1.000
    H79      H        0.03490    0.75790    0.20180    1.000
    H80      H        0.04720    0.67170    0.29640    1.000
    O25      O        0.99810    0.12350    0.07870    1.000
    Zn6      Zn       0.70908    0.86000    0.46452    1.000
    O26      O        0.66591    0.76350    0.33200    1.000
    O27      O        0.66911    0.24950    0.02500    1.000
    O28      O        0.73361    0.39840    0.08470    1.000
    O29      O        0.73030    0.61260    0.38840    1.000
    N16      N        0.67275    0.02790    0.45680    1.000
    C81      C        0.65615    0.42940    0.10840    1.000
    C82      C        0.68385    0.50210    0.19520    1.000
    H81      H        0.72150    0.49680    0.23120    1.000
    N17      N        0.64180    0.22290    0.42620    1.000
    C83      C        0.65529    0.58320    0.22850    1.000
    C84      C        0.68890    0.35120    0.06920    1.000
    C85      C        0.68632    0.65990    0.32470    1.000
    N18      N        0.51400    0.53320    0.03640    1.000
    C86      C        0.59970    0.43240    0.05510    1.000
    H82      H        0.58130    0.38000    0.99900    1.000
    C87      C        0.59890    0.59340    0.17250    1.000
    H83      H        0.57990    0.65150    0.19170    1.000
    C88      C        0.66410    0.12830    0.39740    1.000
    C89      C        0.57110    0.51580    0.08740    1.000
    C90      C        0.62350    0.34750    0.37690    1.000
    H84      H        0.64110    0.41470    0.42610    1.000
    H85      H        0.63370    0.35680    0.32250    1.000
    C91      C        0.65530    0.06070    0.52770    1.000
    H86      H        0.65660    0.00830    0.57950    1.000
    C92      C        0.67820    0.13730    0.31100    1.000
    H87      H        0.68290    0.05230    0.29070    1.000
    H88      H        0.64840    0.17720    0.25340    1.000
    C93      C        0.63610    0.18140    0.50970    1.000
    H89      H        0.62200    0.22710    0.54620    1.000
    C94      C        0.73030    0.21430    0.33990    1.000
    H90      H        0.75990    0.17500    0.39700    1.000
    H91      H        0.73840    0.21660    0.28330    1.000
    H92      H        0.72520    0.29940    0.35760    1.000
    C95      C        0.56220    0.35980    0.33390    1.000
    H93      H        0.55070    0.43930    0.29670    1.000
    H94      H        0.55290    0.36330    0.38980    1.000
    C96      C        0.53120    0.25180    0.26390    1.000
    H95      H        0.53490    0.25790    0.20180    1.000
    H96      H        0.54720    0.17170    0.29640    1.000
    O30      O        0.49810    0.62350    0.07870    1.000
    Zn7      Zn       0.79092    0.36000    0.03548    1.000
    O31      O        0.83409    0.26350    0.16800    1.000
    O32      O        0.83089    0.74950    0.47500    1.000
    O33      O        0.76639    0.89840    0.41530    1.000
    O34      O        0.76970    0.11260    0.11160    1.000
    N19      N        0.82725    0.52790    0.04320    1.000
    C97      C        0.84385    0.92940    0.39160    1.000
    C98      C        0.81615    0.00210    0.30480    1.000
    H97      H        0.77850    0.99680    0.26880    1.000
    N20      N        0.85820    0.72290    0.07380    1.000
    C99      C        0.84471    0.08320    0.27150    1.000
    C100     C        0.81110    0.85120    0.43080    1.000
    C101     C        0.81368    0.15990    0.17530    1.000
    N21      N        0.98600    0.03320    0.46360    1.000
    C102     C        0.90030    0.93240    0.44490    1.000
    H98      H        0.91870    0.88000    0.50100    1.000
    C103     C        0.90110    0.09340    0.32750    1.000
    H99      H        0.92010    0.15150    0.30830    1.000
    C104     C        0.83590    0.62830    0.10260    1.000
    C105     C        0.92890    0.01580    0.41260    1.000
    C106     C        0.87650    0.84750    0.12310    1.000
    H100     H        0.85890    0.91470    0.07390    1.000
    H101     H        0.86630    0.85680    0.17750    1.000
    C107     C        0.84470    0.56070    0.97230    1.000
    H102     H        0.84340    0.50830    0.92050    1.000
    C108     C        0.82180    0.63730    0.18900    1.000
    H103     H        0.81710    0.55230    0.20930    1.000
    H104     H        0.85160    0.67720    0.24660    1.000
    C109     C        0.86390    0.68140    0.99030    1.000
    H105     H        0.87800    0.72710    0.95380    1.000
    C110     C        0.76970    0.71430    0.16010    1.000
    H106     H        0.74010    0.67500    0.10300    1.000
    H107     H        0.76160    0.71660    0.21670    1.000
    H108     H        0.77480    0.79940    0.14240    1.000
    C111     C        0.93780    0.85980    0.16610    1.000
    H109     H        0.94930    0.93930    0.20330    1.000
    H110     H        0.94710    0.86330    0.11020    1.000
    C112     C        0.96880    0.75180    0.23610    1.000
    H111     H        0.96510    0.75790    0.29820    1.000
    H112     H        0.95280    0.67170    0.20360    1.000
    O35      O        0.00190    0.12350    0.42130    1.000
    Zn8      Zn       0.29092    0.86000    0.03548    1.000
    O36      O        0.33409    0.76350    0.16800    1.000
    O37      O        0.33089    0.24950    0.47500    1.000
    O38      O        0.26639    0.39840    0.41530    1.000
    O39      O        0.26970    0.61260    0.11160    1.000
    N22      N        0.32725    0.02790    0.04320    1.000
    C113     C        0.34385    0.42940    0.39160    1.000
    C114     C        0.31615    0.50210    0.30480    1.000
    H113     H        0.27850    0.49680    0.26880    1.000
    N23      N        0.35820    0.22290    0.07380    1.000
    C115     C        0.34471    0.58320    0.27150    1.000
    C116     C        0.31110    0.35120    0.43080    1.000
    C117     C        0.31368    0.65990    0.17530    1.000
    N24      N        0.48600    0.53320    0.46360    1.000
    C118     C        0.40030    0.43240    0.44490    1.000
    H114     H        0.41870    0.38000    0.50100    1.000
    C119     C        0.40110    0.59340    0.32750    1.000
    H115     H        0.42010    0.65150    0.30830    1.000
    C120     C        0.33590    0.12830    0.10260    1.000
    C121     C        0.42890    0.51580    0.41260    1.000
    C122     C        0.37650    0.34750    0.12310    1.000
    H116     H        0.35890    0.41470    0.07390    1.000
    H117     H        0.36630    0.35680    0.17750    1.000
    C123     C        0.34470    0.06070    0.97230    1.000
    H118     H        0.34340    0.00830    0.92050    1.000
    C124     C        0.32180    0.13730    0.18900    1.000
    H119     H        0.31710    0.05230    0.20930    1.000
    H120     H        0.35160    0.17720    0.24660    1.000
    C125     C        0.36390    0.18140    0.99030    1.000
    H121     H        0.37800    0.22710    0.95380    1.000
    C126     C        0.26970    0.21430    0.16010    1.000
    H122     H        0.24010    0.17500    0.10300    1.000
    H123     H        0.26160    0.21660    0.21670    1.000
    H124     H        0.27480    0.29940    0.14240    1.000
    C127     C        0.43780    0.35980    0.16610    1.000
    H125     H        0.44930    0.43930    0.20330    1.000
    H126     H        0.44710    0.36330    0.11020    1.000
    C128     C        0.46880    0.25180    0.23610    1.000
    H127     H        0.46510    0.25790    0.29820    1.000
    H128     H        0.45280    0.17170    0.20360    1.000
    O40      O        0.50190    0.62350    0.42130    1.000
