# CIF file generated by openbabel 3.1.0, see https://openbabel.org
data_I
_chemical_name_common 'XILDUT_clean'
_cell_length_a 12.7907
_cell_length_b 12.7907
_cell_length_c 19.258
_cell_angle_alpha 71.1226
_cell_angle_beta 71.1226
_cell_angle_gamma 86.7339
_space_group_name_H-M_alt 'P 1'
_space_group_name_Hall 'P 1'
loop_
    _symmetry_equiv_pos_as_xyz
    x,y,z
loop_
    _atom_site_label
    _atom_site_type_symbol
    _atom_site_fract_x
    _atom_site_fract_y
    _atom_site_fract_z
    _atom_site_occupancy
    Na1      Na       0.81709    0.01845    0.24256    1.000
    Na2      Na       0.98155    0.18291    0.25744    1.000
    Na3      Na       0.18291    0.98155    0.75744    1.000
    Na4      Na       0.01845    0.81709    0.74256    1.000
    Zn1      Zn       0.72528    0.79118    0.41158    1.000
    Zn2      Zn       0.20882    0.27472    0.08842    1.000
    Zn3      Zn       0.27472    0.20882    0.58842    1.000
    Zn4      Zn       0.79118    0.72528    0.91158    1.000
    H1       H        0.78600    0.18220    0.29680    1.000
    H2       H        0.81780    0.21400    0.20320    1.000
    H3       H        0.21400    0.81780    0.70320    1.000
    H4       H        0.18220    0.78600    0.79680    1.000
    C1       C        0.84010    0.74490    0.27390    1.000
    C2       C        0.90500    0.66280    0.23610    1.000
    C3       C        0.86990    0.62550    0.18630    1.000
    C4       C        0.93240    0.55300    0.15050    1.000
    C5       C        0.02980    0.51620    0.16430    1.000
    C6       C        0.06410    0.55250    0.21520    1.000
    C7       C        0.00260    0.62540    0.25000    1.000
    C8       C        0.10480    0.44680    0.12020    1.000
    C9       C        0.88500    0.94380    0.40670    1.000
    C10      C        0.94700    0.97520    0.45390    1.000
    C11      C        0.05130    0.94030    0.45040    1.000
    C12      C        0.89430    0.03590    0.50280    1.000
    C13      C        0.71830    0.26530    0.22640    1.000
    C14      C        0.25510    0.15990    0.22610    1.000
    C15      C        0.33720    0.09500    0.26390    1.000
    C16      C        0.37450    0.13010    0.31370    1.000
    C17      C        0.44700    0.06760    0.34950    1.000
    C18      C        0.48380    0.97020    0.33570    1.000
    C19      C        0.44750    0.93590    0.28480    1.000
    C20      C        0.37460    0.99740    0.25000    1.000
    C21      C        0.55320    0.89520    0.37980    1.000
    C22      C        0.05620    0.11500    0.09330    1.000
    C23      C        0.02480    0.05300    0.04610    1.000
    C24      C        0.05970    0.94870    0.04960    1.000
    C25      C        0.96410    0.10570    0.99720    1.000
    C26      C        0.73470    0.28170    0.27360    1.000
    C27      C        0.15990    0.25510    0.72610    1.000
    C28      C        0.09500    0.33720    0.76390    1.000
    C29      C        0.13010    0.37450    0.81370    1.000
    C30      C        0.06760    0.44700    0.84950    1.000
    C31      C        0.97020    0.48380    0.83570    1.000
    C32      C        0.93590    0.44750    0.78480    1.000
    C33      C        0.99740    0.37460    0.75000    1.000
    C34      C        0.89520    0.55320    0.87980    1.000
    C35      C        0.11500    0.05620    0.59330    1.000
    C36      C        0.05300    0.02480    0.54610    1.000
    C37      C        0.94870    0.05970    0.54960    1.000
    C38      C        0.10570    0.96410    0.49720    1.000
    C39      C        0.28170    0.73470    0.77360    1.000
    C40      C        0.74490    0.84010    0.77390    1.000
    C41      C        0.66280    0.90500    0.73610    1.000
    C42      C        0.62550    0.86990    0.68630    1.000
    C43      C        0.55300    0.93240    0.65050    1.000
    C44      C        0.51620    0.02980    0.66430    1.000
    C45      C        0.55250    0.06410    0.71520    1.000
    C46      C        0.62540    0.00260    0.75000    1.000
    C47      C        0.44680    0.10480    0.62020    1.000
    C48      C        0.94380    0.88500    0.90670    1.000
    C49      C        0.97520    0.94700    0.95390    1.000
    C50      C        0.94030    0.05130    0.95040    1.000
    C51      C        0.03590    0.89430    0.00280    1.000
    C52      C        0.26530    0.71830    0.72640    1.000
    Cl1      Cl       0.74932    0.67324    0.16722    1.000
    Cl2      Cl       0.89153    0.51295    0.08503    1.000
    Cl3      Cl       0.04904    0.67452    0.30962    1.000
    Cl4      Cl       0.18357    0.50187    0.23503    1.000
    Cl5      Cl       0.11700    0.86552    0.38933    1.000
    Cl6      Cl       0.76365    0.08181    0.50480    1.000
    Cl7      Cl       0.32676    0.25068    0.33278    1.000
    Cl8      Cl       0.48705    0.10847    0.41497    1.000
    Cl9      Cl       0.32548    0.95096    0.19038    1.000
    Cl10     Cl       0.49813    0.81643    0.26497    1.000
    Cl11     Cl       0.13448    0.88300    0.11067    1.000
    Cl12     Cl       0.91819    0.23635    0.99520    1.000
    Cl13     Cl       0.25068    0.32676    0.83278    1.000
    Cl14     Cl       0.10847    0.48705    0.91497    1.000
    Cl15     Cl       0.95096    0.32548    0.69038    1.000
    Cl16     Cl       0.81643    0.49813    0.76497    1.000
    Cl17     Cl       0.88300    0.13448    0.61067    1.000
    Cl18     Cl       0.23635    0.91819    0.49520    1.000
    Cl19     Cl       0.67324    0.74932    0.66722    1.000
    Cl20     Cl       0.51295    0.89153    0.58503    1.000
    Cl21     Cl       0.67452    0.04904    0.80962    1.000
    Cl22     Cl       0.50187    0.18357    0.73503    1.000
    Cl23     Cl       0.86552    0.11700    0.88933    1.000
    Cl24     Cl       0.08181    0.76365    0.00480    1.000
    O1       O        0.78320    0.69900    0.34520    1.000
    O2       O        0.84900    0.84200    0.23540    1.000
    O3       O        0.08180    0.34420    0.14520    1.000
    O4       O        0.18280    0.49260    0.06370    1.000
    O5       O        0.89290    0.00490    0.34160    1.000
    O6       O        0.83040    0.85080    0.44370    1.000
    O7       O        0.30100    0.21680    0.15480    1.000
    O8       O        0.15800    0.15100    0.26460    1.000
    O9       O        0.65580    0.91820    0.35480    1.000
    O10      O        0.50740    0.81720    0.43630    1.000
    O11      O        0.99510    0.10710    0.15840    1.000
    O12      O        0.14920    0.16960    0.05630    1.000
    O13      O        0.21680    0.30100    0.65480    1.000
    O14      O        0.15100    0.15800    0.76460    1.000
    O15      O        0.91820    0.65580    0.85480    1.000
    O16      O        0.81720    0.50740    0.93630    1.000
    O17      O        0.10710    0.99510    0.65840    1.000
    O18      O        0.16960    0.14920    0.55630    1.000
    O19      O        0.69900    0.78320    0.84520    1.000
    O20      O        0.84200    0.84900    0.73540    1.000
    O21      O        0.34420    0.08180    0.64520    1.000
    O22      O        0.49260    0.18280    0.56370    1.000
    O23      O        0.00490    0.89290    0.84160    1.000
    O24      O        0.85080    0.83040    0.94370    1.000
    O25      O        0.79610    0.20390    0.25000    1.000
    O26      O        0.20390    0.79610    0.75000    1.000
