# CIF file generated by openbabel 3.1.0, see https://openbabel.org
data_I
_chemical_name_common 'image0'
_cell_length_a 20.2327
_cell_length_b 10.0714
_cell_length_c 21.673
_cell_angle_alpha 90
_cell_angle_beta 97.856
_cell_angle_gamma 90
_space_group_name_H-M_alt 'P 1'
_space_group_name_Hall 'P 1'
loop_
    _symmetry_equiv_pos_as_xyz
    x,y,z
loop_
    _atom_site_label
    _atom_site_type_symbol
    _atom_site_fract_x
    _atom_site_fract_y
    _atom_site_fract_z
    _atom_site_occupancy
    Th1      Th       0.14896    0.79057    0.41306    1.000
    Th2      Th       0.35648    0.78556    0.59304    1.000
    O1       O        0.16150    0.86510    0.51827    1.000
    O2       O        0.17610    0.75250    0.80523    1.000
    O3       O        0.34410    0.85220    0.48742    1.000
    O4       O        0.10670    0.89500    0.83782    1.000
    O5       O        0.32760    0.74220    0.20000    1.000
    O6       O        0.26820    0.77190    0.41490    1.000
    O7       O        0.38390    0.90450    0.16743    1.000
    O8       O        0.19250    0.60140    0.47400    1.000
    O9       O        0.54080    0.15240    0.33070    1.000
    O10      O        0.94430    0.12230    0.66691    1.000
    O11      O        0.19250    0.99890    0.39840    1.000
    O12      O        0.94310    0.04380    0.57230    1.000
    C1       C        0.15640    0.85760    0.68430    1.000
    H1       H        0.19690    0.81500    0.69630    1.000
    C2       C        0.13710    0.89080    0.62180    1.000
    C3       C        0.36070    0.88610    0.38350    1.000
    C4       C        0.07510    0.95020    0.60310    1.000
    H2       H        0.06070    0.96570    0.56110    1.000
    C5       C        0.32140    0.83390    0.43190    1.000
    C6       C        0.41640    0.96440    0.40010    1.000
    H3       H        0.43040    0.98390    0.44180    1.000
    C7       C        0.11500    0.88840    0.72830    1.000
    C8       C        0.13390    0.84550    0.79440    1.000
    C9       C        0.03550    0.98580    0.64760    1.000
    C10      C        0.36270    0.84760    0.21040    1.000
    C11      C        0.05610    0.95700    0.71020    1.000
    H4       H        0.03020    0.98410    0.74020    1.000
    C12      C        0.28910    0.19920    0.55600    1.000
    C13      C        0.37830    0.89710    0.27600    1.000
    C14      C        0.18320    0.86340    0.57520    1.000
    C15      C        0.24800    0.40520    0.50690    1.000
    C16      C        0.34140    0.85200    0.32130    1.000
    H5       H        0.30400    0.79910    0.31020    1.000
    C17      C        0.21980    0.33580    0.45470    1.000
    H6       H        0.19740    0.38130    0.42080    1.000
    C18      C        0.45170    0.01390    0.35420    1.000
    C19      C        0.22500    0.19660    0.45280    1.000
    C20      C        0.28320    0.33800    0.55740    1.000
    H7       H        0.30290    0.38530    0.59200    1.000
    O13      O        0.53540    0.10930    0.42860    1.000
    O14      O        0.24260    0.84310    0.59620    1.000
    O15      O        0.34640    0.01280    0.60420    1.000
    O16      O        0.28340    0.61630    0.54420    1.000
    C21      C        0.97040    0.05360    0.62770    1.000
    C22      C        0.24140    0.55210    0.50890    1.000
    C23      C        0.26050    0.13090    0.50370    1.000
    H8       H        0.26490    0.03910    0.50240    1.000
    C24      C        0.43230    0.98120    0.29210    1.000
    H9       H        0.45540    0.01550    0.26140    1.000
    C25      C        0.19330    0.12460    0.39610    1.000
    C26      C        0.51230    0.09830    0.37210    1.000
    C27      C        0.32660    0.13050    0.61140    1.000
    O17      O        0.16740    0.18770    0.35190    1.000
    O18      O        0.33950    0.19090    0.66010    1.000
    Th3      Th       0.85104    0.29057    0.08694    1.000
    Th4      Th       0.64352    0.28556    0.90696    1.000
    O19      O        0.83850    0.36510    0.98173    1.000
    O20      O        0.82390    0.25250    0.69477    1.000
    O21      O        0.65590    0.35220    0.01258    1.000
    O22      O        0.89330    0.39500    0.66218    1.000
    O23      O        0.67240    0.24220    0.30000    1.000
    O24      O        0.73180    0.27190    0.08510    1.000
    O25      O        0.61610    0.40450    0.33257    1.000
    O26      O        0.80750    0.10140    0.02600    1.000
    O27      O        0.45920    0.65240    0.16930    1.000
    O28      O        0.05570    0.62230    0.83309    1.000
    O29      O        0.80750    0.49890    0.10160    1.000
    O30      O        0.05690    0.54380    0.92770    1.000
    C28      C        0.84360    0.35760    0.81570    1.000
    H10      H        0.80310    0.31500    0.80370    1.000
    C29      C        0.86290    0.39080    0.87820    1.000
    C30      C        0.63930    0.38610    0.11650    1.000
    C31      C        0.92490    0.45020    0.89690    1.000
    H11      H        0.93930    0.46570    0.93890    1.000
    C32      C        0.67860    0.33390    0.06810    1.000
    C33      C        0.58360    0.46440    0.09990    1.000
    H12      H        0.56960    0.48390    0.05820    1.000
    C34      C        0.88500    0.38840    0.77170    1.000
    C35      C        0.86610    0.34550    0.70560    1.000
    C36      C        0.96450    0.48580    0.85240    1.000
    C37      C        0.63730    0.34760    0.28960    1.000
    C38      C        0.94390    0.45700    0.78980    1.000
    H13      H        0.96980    0.48410    0.75980    1.000
    C39      C        0.71090    0.69920    0.94400    1.000
    C40      C        0.62170    0.39710    0.22400    1.000
    C41      C        0.81680    0.36340    0.92480    1.000
    C42      C        0.75200    0.90520    0.99310    1.000
    C43      C        0.65860    0.35200    0.17870    1.000
    H14      H        0.69600    0.29910    0.18980    1.000
    C44      C        0.78020    0.83580    0.04530    1.000
    H15      H        0.80260    0.88130    0.07920    1.000
    C45      C        0.54830    0.51390    0.14580    1.000
    C46      C        0.77500    0.69660    0.04720    1.000
    C47      C        0.71680    0.83800    0.94260    1.000
    H16      H        0.69710    0.88530    0.90800    1.000
    O31      O        0.46460    0.60930    0.07140    1.000
    O32      O        0.75740    0.34310    0.90380    1.000
    O33      O        0.65360    0.51280    0.89580    1.000
    O34      O        0.71660    0.11630    0.95580    1.000
    C48      C        0.02960    0.55360    0.87230    1.000
    C49      C        0.75860    0.05210    0.99110    1.000
    C50      C        0.73950    0.63090    0.99630    1.000
    H17      H        0.73510    0.53910    0.99760    1.000
    C51      C        0.56770    0.48120    0.20790    1.000
    H18      H        0.54460    0.51550    0.23860    1.000
    C52      C        0.80670    0.62460    0.10390    1.000
    C53      C        0.48770    0.59830    0.12790    1.000
    C54      C        0.67340    0.63050    0.88860    1.000
    O35      O        0.83260    0.68770    0.14810    1.000
    O36      O        0.66050    0.69090    0.83990    1.000
    Th5      Th       0.85104    0.20943    0.58694    1.000
    Th6      Th       0.64352    0.21444    0.40696    1.000
    O37      O        0.83850    0.13490    0.48173    1.000
    O38      O        0.82390    0.24750    0.19477    1.000
    O39      O        0.65590    0.14780    0.51258    1.000
    O40      O        0.89330    0.10500    0.16218    1.000
    O41      O        0.67240    0.25780    0.80000    1.000
    O42      O        0.73180    0.22810    0.58510    1.000
    O43      O        0.61610    0.09550    0.83257    1.000
    O44      O        0.80750    0.39860    0.52600    1.000
    O45      O        0.45920    0.84760    0.66930    1.000
    O46      O        0.05570    0.87770    0.33309    1.000
    O47      O        0.80750    0.00110    0.60160    1.000
    O48      O        0.05690    0.95620    0.42770    1.000
    C55      C        0.84360    0.14240    0.31570    1.000
    H19      H        0.80310    0.18500    0.30370    1.000
    C56      C        0.86290    0.10920    0.37820    1.000
    C57      C        0.63930    0.11390    0.61650    1.000
    C58      C        0.92490    0.04980    0.39690    1.000
    H20      H        0.93930    0.03430    0.43890    1.000
    C59      C        0.67860    0.16610    0.56810    1.000
    C60      C        0.58360    0.03560    0.59990    1.000
    H21      H        0.56960    0.01610    0.55820    1.000
    C61      C        0.88500    0.11160    0.27170    1.000
    C62      C        0.86610    0.15450    0.20560    1.000
    C63      C        0.96450    0.01420    0.35240    1.000
    C64      C        0.63730    0.15240    0.78960    1.000
    C65      C        0.94390    0.04300    0.28980    1.000
    H22      H        0.96980    0.01590    0.25980    1.000
    C66      C        0.71090    0.80080    0.44400    1.000
    C67      C        0.62170    0.10290    0.72400    1.000
    C68      C        0.81680    0.13660    0.42480    1.000
    C69      C        0.75200    0.59480    0.49310    1.000
    C70      C        0.65860    0.14800    0.67870    1.000
    H23      H        0.69600    0.20090    0.68980    1.000
    C71      C        0.78020    0.66420    0.54530    1.000
    H24      H        0.80260    0.61870    0.57920    1.000
    C72      C        0.54830    0.98610    0.64580    1.000
    C73      C        0.77500    0.80340    0.54720    1.000
    C74      C        0.71680    0.66200    0.44260    1.000
    H25      H        0.69710    0.61470    0.40800    1.000
    O49      O        0.46460    0.89070    0.57140    1.000
    O50      O        0.75740    0.15690    0.40380    1.000
    O51      O        0.65360    0.98720    0.39580    1.000
    O52      O        0.71660    0.38370    0.45580    1.000
    C75      C        0.02960    0.94640    0.37230    1.000
    C76      C        0.75860    0.44790    0.49110    1.000
    C77      C        0.73950    0.86910    0.49630    1.000
    H26      H        0.73510    0.96090    0.49760    1.000
    C78      C        0.56770    0.01880    0.70790    1.000
    H27      H        0.54460    0.98450    0.73860    1.000
    C79      C        0.80670    0.87540    0.60390    1.000
    C80      C        0.48770    0.90170    0.62790    1.000
    C81      C        0.67340    0.86950    0.38860    1.000
    O53      O        0.83260    0.81230    0.64810    1.000
    O54      O        0.66050    0.80910    0.33990    1.000
    Th7      Th       0.14896    0.70943    0.91306    1.000
    Th8      Th       0.35648    0.71444    0.09304    1.000
    O55      O        0.16150    0.63490    0.01827    1.000
    O56      O        0.17610    0.74750    0.30523    1.000
    O57      O        0.34410    0.64780    0.98742    1.000
    O58      O        0.10670    0.60500    0.33782    1.000
    O59      O        0.32760    0.75780    0.70000    1.000
    O60      O        0.26820    0.72810    0.91490    1.000
    O61      O        0.38390    0.59550    0.66743    1.000
    O62      O        0.19250    0.89860    0.97400    1.000
    O63      O        0.54080    0.34760    0.83070    1.000
    O64      O        0.94430    0.37770    0.16691    1.000
    O65      O        0.19250    0.50110    0.89840    1.000
    O66      O        0.94310    0.45620    0.07230    1.000
    C82      C        0.15640    0.64240    0.18430    1.000
    H28      H        0.19690    0.68500    0.19630    1.000
    C83      C        0.13710    0.60920    0.12180    1.000
    C84      C        0.36070    0.61390    0.88350    1.000
    C85      C        0.07510    0.54980    0.10310    1.000
    H29      H        0.06070    0.53430    0.06110    1.000
    C86      C        0.32140    0.66610    0.93190    1.000
    C87      C        0.41640    0.53560    0.90010    1.000
    H30      H        0.43040    0.51610    0.94180    1.000
    C88      C        0.11500    0.61160    0.22830    1.000
    C89      C        0.13390    0.65450    0.29440    1.000
    C90      C        0.03550    0.51420    0.14760    1.000
    C91      C        0.36270    0.65240    0.71040    1.000
    C92      C        0.05610    0.54300    0.21020    1.000
    H31      H        0.03020    0.51590    0.24020    1.000
    C93      C        0.28910    0.30080    0.05600    1.000
    C94      C        0.37830    0.60290    0.77600    1.000
    C95      C        0.18320    0.63660    0.07520    1.000
    C96      C        0.24800    0.09480    0.00690    1.000
    C97      C        0.34140    0.64800    0.82130    1.000
    H32      H        0.30400    0.70090    0.81020    1.000
    C98      C        0.21980    0.16420    0.95470    1.000
    H33      H        0.19740    0.11870    0.92080    1.000
    C99      C        0.45170    0.48610    0.85420    1.000
    C100     C        0.22500    0.30340    0.95280    1.000
    C101     C        0.28320    0.16200    0.05740    1.000
    H34      H        0.30290    0.11470    0.09200    1.000
    O67      O        0.53540    0.39070    0.92860    1.000
    O68      O        0.24260    0.65690    0.09620    1.000
    O69      O        0.34640    0.48720    0.10420    1.000
    O70      O        0.28340    0.88370    0.04420    1.000
    C102     C        0.97040    0.44640    0.12770    1.000
    C103     C        0.24140    0.94790    0.00890    1.000
    C104     C        0.26050    0.36910    0.00370    1.000
    H35      H        0.26490    0.46090    0.00240    1.000
    C105     C        0.43230    0.51880    0.79210    1.000
    H36      H        0.45540    0.48450    0.76140    1.000
    C106     C        0.19330    0.37540    0.89610    1.000
    C107     C        0.51230    0.40170    0.87210    1.000
    C108     C        0.32660    0.36950    0.11140    1.000
    O71      O        0.16740    0.31230    0.85190    1.000
    O72      O        0.33950    0.30910    0.16010    1.000
