# CIF file generated by openbabel 3.1.0, see https://openbabel.org
data_I
_chemical_name_common 'EMIGUD_charged'
_cell_length_a 22.4165
_cell_length_b 22.4388
_cell_length_c 33.994
_cell_angle_alpha 90
_cell_angle_beta 90
_cell_angle_gamma 90
_space_group_name_H-M_alt 'P 1'
_space_group_name_Hall 'P 1'
loop_
    _symmetry_equiv_pos_as_xyz
    x,y,z
loop_
    _atom_site_label
    _atom_site_type_symbol
    _atom_site_fract_x
    _atom_site_fract_y
    _atom_site_fract_z
    _atom_site_occupancy
    In1      In       0.29636    0.08305    0.76132    1.000
    In2      In       0.22230    0.16168    0.84364    1.000
    In3      In       0.31147    0.00273    0.85795    1.000
    In4      In       0.15711    0.00814    0.79387    1.000
    In5      In       0.14083    0.21855    0.93225    1.000
    In6      In       0.22630    0.07874    0.95051    1.000
    In7      In       0.07129    0.08581    0.88665    1.000
    In8      In       0.30449    0.93232    0.95562    1.000
    In9      In       0.15973    0.92629    0.90189    1.000
    In10     In       0.02211    0.94137    0.84175    1.000
    In11     In       0.70364    0.41695    0.26132    1.000
    In12     In       0.77770    0.33832    0.34364    1.000
    In13     In       0.68853    0.49727    0.35795    1.000
    In14     In       0.84289    0.49186    0.29387    1.000
    In15     In       0.85917    0.28145    0.43225    1.000
    In16     In       0.77370    0.42126    0.45051    1.000
    In17     In       0.92871    0.41419    0.38665    1.000
    In18     In       0.69551    0.56768    0.45562    1.000
    In19     In       0.84027    0.57371    0.40189    1.000
    In20     In       0.97789    0.55863    0.34175    1.000
    In21     In       0.79636    0.91695    0.73868    1.000
    In22     In       0.72230    0.83832    0.65636    1.000
    In23     In       0.81147    0.99727    0.64205    1.000
    In24     In       0.65711    0.99186    0.70613    1.000
    In25     In       0.64083    0.78145    0.56775    1.000
    In26     In       0.72630    0.92126    0.54949    1.000
    In27     In       0.57129    0.91419    0.61335    1.000
    In28     In       0.80449    0.06768    0.54438    1.000
    In29     In       0.65973    0.07371    0.59811    1.000
    In30     In       0.52211    0.05863    0.65825    1.000
    In31     In       0.20364    0.58305    0.23868    1.000
    In32     In       0.27770    0.66168    0.15636    1.000
    In33     In       0.18853    0.50273    0.14205    1.000
    In34     In       0.34289    0.50814    0.20613    1.000
    In35     In       0.35917    0.71855    0.06775    1.000
    In36     In       0.27370    0.57874    0.04949    1.000
    In37     In       0.42871    0.58581    0.11335    1.000
    In38     In       0.19551    0.43232    0.04438    1.000
    In39     In       0.34027    0.42629    0.09811    1.000
    In40     In       0.47789    0.44137    0.15825    1.000
    H1       H        0.19360    0.30320    0.99950    1.000
    H2       H        0.07520    0.48000    0.99400    1.000
    H3       H        0.98970    0.48000    0.95530    1.000
    H4       H        0.01990    0.30980    0.91940    1.000
    H5       H        0.89980    0.40990    0.93620    1.000
    H6       H        0.91700    0.35150    0.91170    1.000
    H7       H        0.92870    0.41610    0.89340    1.000
    H8       H        0.42250    0.04800    0.72220    1.000
    H9       H        0.27000    0.18640    0.68910    1.000
    H10      H        0.28290    0.25460    0.63840    1.000
    H11      H        0.44520    0.18150    0.61360    1.000
    H12      H        0.40450    0.26120    0.57380    1.000
    H13      H        0.35070    0.29970    0.59140    1.000
    H14      H        0.33700    0.24140    0.56580    1.000
    H15      H        0.80640    0.19680    0.49950    1.000
    H16      H        0.92480    0.02000    0.49400    1.000
    H17      H        0.01030    0.02000    0.45530    1.000
    H18      H        0.98010    0.19020    0.41940    1.000
    H19      H        0.10020    0.09010    0.43620    1.000
    H20      H        0.08300    0.14850    0.41170    1.000
    H21      H        0.07130    0.08390    0.39340    1.000
    H22      H        0.57750    0.45200    0.22220    1.000
    H23      H        0.73000    0.31360    0.18910    1.000
    H24      H        0.71710    0.24540    0.13840    1.000
    H25      H        0.55480    0.31850    0.11360    1.000
    H26      H        0.59550    0.23880    0.07380    1.000
    H27      H        0.64930    0.20030    0.09140    1.000
    H28      H        0.66300    0.25860    0.06580    1.000
    H29      H        0.69360    0.69680    0.50050    1.000
    H30      H        0.57520    0.52000    0.50600    1.000
    H31      H        0.48970    0.52000    0.54470    1.000
    H32      H        0.51990    0.69020    0.58060    1.000
    H33      H        0.39980    0.59010    0.56380    1.000
    H34      H        0.41700    0.64850    0.58830    1.000
    H35      H        0.42870    0.58390    0.60660    1.000
    H36      H        0.92250    0.95200    0.77780    1.000
    H37      H        0.77000    0.81360    0.81090    1.000
    H38      H        0.78290    0.74540    0.86160    1.000
    H39      H        0.94520    0.81850    0.88640    1.000
    H40      H        0.90450    0.73880    0.92620    1.000
    H41      H        0.85070    0.70030    0.90860    1.000
    H42      H        0.83700    0.75860    0.93420    1.000
    H43      H        0.30640    0.80320    0.00050    1.000
    H44      H        0.42480    0.98000    0.00600    1.000
    H45      H        0.51030    0.98000    0.04470    1.000
    H46      H        0.48010    0.80980    0.08060    1.000
    H47      H        0.60020    0.90990    0.06380    1.000
    H48      H        0.58300    0.85150    0.08830    1.000
    H49      H        0.57130    0.91610    0.10660    1.000
    H50      H        0.07750    0.54800    0.27780    1.000
    H51      H        0.23000    0.68640    0.31090    1.000
    H52      H        0.21710    0.75460    0.36160    1.000
    H53      H        0.05480    0.68150    0.38640    1.000
    H54      H        0.09550    0.76120    0.42620    1.000
    H55      H        0.14930    0.79970    0.40860    1.000
    H56      H        0.16300    0.74140    0.43420    1.000
    C1       C        0.16010    0.32450    0.98970    1.000
    C2       C        0.09570    0.39470    0.98020    1.000
    C3       C        0.06340    0.44560    0.97970    1.000
    C4       C        0.01270    0.44460    0.95720    1.000
    C5       C        0.99290    0.39340    0.93660    1.000
    C6       C        0.02980    0.34330    0.93520    1.000
    C7       C        0.08010    0.34420    0.95710    1.000
    C8       C        0.92850    0.39260    0.91770    1.000
    C9       C        0.40750    0.07890    0.70580    1.000
    C10      C        0.35060    0.14690    0.68310    1.000
    C11      C        0.30580    0.18640    0.67420    1.000
    C12      C        0.31300    0.22580    0.64380    1.000
    C13      C        0.36520    0.22360    0.62020    1.000
    C14      C        0.40980    0.18350    0.62890    1.000
    C15      C        0.40110    0.14580    0.66110    1.000
    C16      C        0.36400    0.25930    0.58500    1.000
    C17      C        0.83990    0.17550    0.48970    1.000
    C18      C        0.90430    0.10530    0.48020    1.000
    C19      C        0.93660    0.05440    0.47970    1.000
    C20      C        0.98730    0.05540    0.45720    1.000
    C21      C        0.00710    0.10660    0.43660    1.000
    C22      C        0.97020    0.15670    0.43520    1.000
    C23      C        0.91990    0.15580    0.45710    1.000
    C24      C        0.07150    0.10740    0.41770    1.000
    C25      C        0.59250    0.42110    0.20580    1.000
    C26      C        0.64940    0.35310    0.18310    1.000
    C27      C        0.69420    0.31360    0.17420    1.000
    C28      C        0.68700    0.27420    0.14380    1.000
    C29      C        0.63480    0.27640    0.12020    1.000
    C30      C        0.59020    0.31650    0.12890    1.000
    C31      C        0.59890    0.35420    0.16110    1.000
    C32      C        0.63600    0.24070    0.08500    1.000
    C33      C        0.66010    0.67550    0.51030    1.000
    C34      C        0.59570    0.60530    0.51980    1.000
    C35      C        0.56340    0.55440    0.52030    1.000
    C36      C        0.51270    0.55540    0.54280    1.000
    C37      C        0.49290    0.60660    0.56340    1.000
    C38      C        0.52980    0.65670    0.56480    1.000
    C39      C        0.58010    0.65580    0.54290    1.000
    C40      C        0.42850    0.60740    0.58230    1.000
    C41      C        0.90750    0.92110    0.79420    1.000
    C42      C        0.85060    0.85310    0.81690    1.000
    C43      C        0.80580    0.81360    0.82580    1.000
    C44      C        0.81300    0.77420    0.85620    1.000
    C45      C        0.86520    0.77640    0.87980    1.000
    C46      C        0.90980    0.81650    0.87110    1.000
    C47      C        0.90110    0.85420    0.83890    1.000
    C48      C        0.86400    0.74070    0.91500    1.000
    C49      C        0.33990    0.82450    0.01030    1.000
    C50      C        0.40430    0.89470    0.01980    1.000
    C51      C        0.43660    0.94560    0.02030    1.000
    C52      C        0.48730    0.94460    0.04280    1.000
    C53      C        0.50710    0.89340    0.06340    1.000
    C54      C        0.47020    0.84330    0.06480    1.000
    C55      C        0.41990    0.84420    0.04290    1.000
    C56      C        0.57150    0.89260    0.08230    1.000
    C57      C        0.09250    0.57890    0.29420    1.000
    C58      C        0.14940    0.64690    0.31690    1.000
    C59      C        0.19420    0.68640    0.32580    1.000
    C60      C        0.18700    0.72580    0.35620    1.000
    C61      C        0.13480    0.72360    0.37980    1.000
    C62      C        0.09020    0.68350    0.37110    1.000
    C63      C        0.09890    0.64580    0.33890    1.000
    C64      C        0.13600    0.75930    0.41500    1.000
    S1       S        0.27690    0.18270    0.78447    1.000
    S2       S        0.36674    0.02310    0.79850    1.000
    S3       S        0.21370    0.02660    0.73474    1.000
    S4       S        0.19650    0.25370    0.87583    1.000
    S5       S        0.28372    0.09982    0.88908    1.000
    S6       S        0.12952    0.10560    0.82514    1.000
    S7       S        0.37100    0.94094    0.90024    1.000
    S8       S        0.21782    0.94726    0.84050    1.000
    S9       S        0.06794    0.95360    0.77748    1.000
    S10      S        0.19800    0.16970    0.98330    1.000
    S11      S        0.04349    0.17830    0.91744    1.000
    S12      S        0.29090    0.02270    0.99304    1.000
    S13      S        0.13260    0.02402    0.93292    1.000
    S14      S        0.98177    0.03370    0.86781    1.000
    S15      S        0.21748    0.86910    0.94761    1.000
    S16      S        0.06900    0.87270    0.88619    1.000
    S17      S        0.72310    0.31730    0.28447    1.000
    S18      S        0.63326    0.47690    0.29850    1.000
    S19      S        0.78630    0.47340    0.23474    1.000
    S20      S        0.80350    0.24630    0.37583    1.000
    S21      S        0.71628    0.40018    0.38908    1.000
    S22      S        0.87048    0.39440    0.32514    1.000
    S23      S        0.62900    0.55906    0.40024    1.000
    S24      S        0.78218    0.55274    0.34050    1.000
    S25      S        0.93206    0.54640    0.27748    1.000
    S26      S        0.80200    0.33030    0.48330    1.000
    S27      S        0.95651    0.32170    0.41744    1.000
    S28      S        0.70910    0.47730    0.49304    1.000
    S29      S        0.86740    0.47598    0.43292    1.000
    S30      S        0.01823    0.46630    0.36781    1.000
    S31      S        0.78252    0.63090    0.44761    1.000
    S32      S        0.93100    0.62730    0.38619    1.000
    S33      S        0.77690    0.81730    0.71553    1.000
    S34      S        0.86674    0.97690    0.70150    1.000
    S35      S        0.71370    0.97340    0.76526    1.000
    S36      S        0.69650    0.74630    0.62417    1.000
    S37      S        0.78372    0.90018    0.61092    1.000
    S38      S        0.62952    0.89440    0.67486    1.000
    S39      S        0.87100    0.05906    0.59976    1.000
    S40      S        0.71782    0.05274    0.65950    1.000
    S41      S        0.56794    0.04640    0.72252    1.000
    S42      S        0.69800    0.83030    0.51670    1.000
    S43      S        0.54349    0.82170    0.58256    1.000
    S44      S        0.79090    0.97730    0.50696    1.000
    S45      S        0.63260    0.97598    0.56708    1.000
    S46      S        0.48177    0.96630    0.63219    1.000
    S47      S        0.71748    0.13090    0.55239    1.000
    S48      S        0.56900    0.12730    0.61381    1.000
    S49      S        0.22310    0.68270    0.21553    1.000
    S50      S        0.13326    0.52310    0.20150    1.000
    S51      S        0.28630    0.52660    0.26526    1.000
    S52      S        0.30350    0.75370    0.12417    1.000
    S53      S        0.21628    0.59982    0.11092    1.000
    S54      S        0.37048    0.60560    0.17486    1.000
    S55      S        0.12900    0.44094    0.09976    1.000
    S56      S        0.28218    0.44726    0.15950    1.000
    S57      S        0.43206    0.45360    0.22252    1.000
    S58      S        0.30200    0.66970    0.01670    1.000
    S59      S        0.45651    0.67830    0.08256    1.000
    S60      S        0.20910    0.52270    0.00696    1.000
    S61      S        0.36740    0.52402    0.06708    1.000
    S62      S        0.51823    0.53370    0.13219    1.000
    S63      S        0.28252    0.36910    0.05239    1.000
    S64      S        0.43100    0.37270    0.11381    1.000
    N1       N        0.14620    0.37970    0.00160    1.000
    N2       N        0.12290    0.30180    0.96290    1.000
    N3       N        0.43860    0.10070    0.67640    1.000
    N4       N        0.35380    0.10270    0.71110    1.000
    N5       N        0.85380    0.12030    0.50160    1.000
    N6       N        0.87710    0.19820    0.46290    1.000
    N7       N        0.56140    0.39930    0.17640    1.000
    N8       N        0.64620    0.39730    0.21110    1.000
    N9       N        0.64620    0.62030    0.49840    1.000
    N10      N        0.62290    0.69820    0.53710    1.000
    N11      N        0.93860    0.89930    0.82360    1.000
    N12      N        0.85380    0.89730    0.78890    1.000
    N13      N        0.35380    0.87970    0.99840    1.000
    N14      N        0.37710    0.80180    0.03710    1.000
    N15      N        0.06140    0.60070    0.32360    1.000
    N16      N        0.14620    0.60270    0.28890    1.000
    In41     In       0.70364    0.91695    0.23868    1.000
    In42     In       0.77770    0.83832    0.15636    1.000
    In43     In       0.68853    0.99727    0.14205    1.000
    In44     In       0.84289    0.99186    0.20613    1.000
    In45     In       0.85917    0.78145    0.06775    1.000
    In46     In       0.77370    0.92126    0.04949    1.000
    In47     In       0.92871    0.91419    0.11335    1.000
    In48     In       0.69551    0.06768    0.04438    1.000
    In49     In       0.84027    0.07371    0.09811    1.000
    In50     In       0.97789    0.05863    0.15825    1.000
    In51     In       0.29636    0.58305    0.73868    1.000
    In52     In       0.22230    0.66168    0.65636    1.000
    In53     In       0.31147    0.50273    0.64205    1.000
    In54     In       0.15711    0.50814    0.70613    1.000
    In55     In       0.14083    0.71855    0.56775    1.000
    In56     In       0.22630    0.57874    0.54949    1.000
    In57     In       0.07129    0.58581    0.61335    1.000
    In58     In       0.30449    0.43232    0.54438    1.000
    In59     In       0.15973    0.42629    0.59811    1.000
    In60     In       0.02211    0.44137    0.65825    1.000
    In61     In       0.20364    0.08305    0.26132    1.000
    In62     In       0.27770    0.16168    0.34364    1.000
    In63     In       0.18853    0.00273    0.35795    1.000
    In64     In       0.34289    0.00814    0.29387    1.000
    In65     In       0.35917    0.21855    0.43225    1.000
    In66     In       0.27370    0.07874    0.45051    1.000
    In67     In       0.42871    0.08581    0.38665    1.000
    In68     In       0.19551    0.93232    0.45562    1.000
    In69     In       0.34027    0.92629    0.40189    1.000
    In70     In       0.47789    0.94137    0.34175    1.000
    In71     In       0.79636    0.41695    0.76132    1.000
    In72     In       0.72230    0.33832    0.84364    1.000
    In73     In       0.81147    0.49727    0.85795    1.000
    In74     In       0.65711    0.49186    0.79387    1.000
    In75     In       0.64083    0.28145    0.93225    1.000
    In76     In       0.72630    0.42126    0.95051    1.000
    In77     In       0.57129    0.41419    0.88665    1.000
    In78     In       0.80449    0.56768    0.95562    1.000
    In79     In       0.65973    0.57371    0.90189    1.000
    In80     In       0.52211    0.55863    0.84175    1.000
    H57      H        0.80640    0.69680    0.00050    1.000
    H58      H        0.92480    0.52000    0.00600    1.000
    H59      H        0.01030    0.52000    0.04470    1.000
    H60      H        0.98010    0.69020    0.08060    1.000
    H61      H        0.10020    0.59010    0.06380    1.000
    H62      H        0.08300    0.64850    0.08830    1.000
    H63      H        0.07130    0.58390    0.10660    1.000
    H64      H        0.57750    0.95200    0.27780    1.000
    H65      H        0.73000    0.81360    0.31090    1.000
    H66      H        0.71710    0.74540    0.36160    1.000
    H67      H        0.55480    0.81850    0.38640    1.000
    H68      H        0.59550    0.73880    0.42620    1.000
    H69      H        0.64930    0.70030    0.40860    1.000
    H70      H        0.66300    0.75860    0.43420    1.000
    H71      H        0.19360    0.80320    0.50050    1.000
    H72      H        0.07520    0.98000    0.50600    1.000
    H73      H        0.98970    0.98000    0.54470    1.000
    H74      H        0.01990    0.80980    0.58060    1.000
    H75      H        0.89980    0.90990    0.56380    1.000
    H76      H        0.91700    0.85150    0.58830    1.000
    H77      H        0.92870    0.91610    0.60660    1.000
    H78      H        0.42250    0.54800    0.77780    1.000
    H79      H        0.27000    0.68640    0.81090    1.000
    H80      H        0.28290    0.75460    0.86160    1.000
    H81      H        0.44520    0.68150    0.88640    1.000
    H82      H        0.40450    0.76120    0.92620    1.000
    H83      H        0.35070    0.79970    0.90860    1.000
    H84      H        0.33700    0.74140    0.93420    1.000
    H85      H        0.30640    0.30320    0.49950    1.000
    H86      H        0.42480    0.48000    0.49400    1.000
    H87      H        0.51030    0.48000    0.45530    1.000
    H88      H        0.48010    0.30980    0.41940    1.000
    H89      H        0.60020    0.40990    0.43620    1.000
    H90      H        0.58300    0.35150    0.41170    1.000
    H91      H        0.57130    0.41610    0.39340    1.000
    H92      H        0.07750    0.04800    0.22220    1.000
    H93      H        0.23000    0.18640    0.18910    1.000
    H94      H        0.21710    0.25460    0.13840    1.000
    H95      H        0.05480    0.18150    0.11360    1.000
    H96      H        0.09550    0.26120    0.07380    1.000
    H97      H        0.14930    0.29970    0.09140    1.000
    H98      H        0.16300    0.24140    0.06580    1.000
    H99      H        0.69360    0.19680    0.99950    1.000
    H100     H        0.57520    0.02000    0.99400    1.000
    H101     H        0.48970    0.02000    0.95530    1.000
    H102     H        0.51990    0.19020    0.91940    1.000
    H103     H        0.39980    0.09010    0.93620    1.000
    H104     H        0.41700    0.14850    0.91170    1.000
    H105     H        0.42870    0.08390    0.89340    1.000
    H106     H        0.92250    0.45200    0.72220    1.000
    H107     H        0.77000    0.31360    0.68910    1.000
    H108     H        0.78290    0.24540    0.63840    1.000
    H109     H        0.94520    0.31850    0.61360    1.000
    H110     H        0.90450    0.23880    0.57380    1.000
    H111     H        0.85070    0.20030    0.59140    1.000
    H112     H        0.83700    0.25860    0.56580    1.000
    C65      C        0.83990    0.67550    0.01030    1.000
    C66      C        0.90430    0.60530    0.01980    1.000
    C67      C        0.93660    0.55440    0.02030    1.000
    C68      C        0.98730    0.55540    0.04280    1.000
    C69      C        0.00710    0.60660    0.06340    1.000
    C70      C        0.97020    0.65670    0.06480    1.000
    C71      C        0.91990    0.65580    0.04290    1.000
    C72      C        0.07150    0.60740    0.08230    1.000
    C73      C        0.59250    0.92110    0.29420    1.000
    C74      C        0.64940    0.85310    0.31690    1.000
    C75      C        0.69420    0.81360    0.32580    1.000
    C76      C        0.68700    0.77420    0.35620    1.000
    C77      C        0.63480    0.77640    0.37980    1.000
    C78      C        0.59020    0.81650    0.37110    1.000
    C79      C        0.59890    0.85420    0.33890    1.000
    C80      C        0.63600    0.74070    0.41500    1.000
    C81      C        0.16010    0.82450    0.51030    1.000
    C82      C        0.09570    0.89470    0.51980    1.000
    C83      C        0.06340    0.94560    0.52030    1.000
    C84      C        0.01270    0.94460    0.54280    1.000
    C85      C        0.99290    0.89340    0.56340    1.000
    C86      C        0.02980    0.84330    0.56480    1.000
    C87      C        0.08010    0.84420    0.54290    1.000
    C88      C        0.92850    0.89260    0.58230    1.000
    C89      C        0.40750    0.57890    0.79420    1.000
    C90      C        0.35060    0.64690    0.81690    1.000
    C91      C        0.30580    0.68640    0.82580    1.000
    C92      C        0.31300    0.72580    0.85620    1.000
    C93      C        0.36520    0.72360    0.87980    1.000
    C94      C        0.40980    0.68350    0.87110    1.000
    C95      C        0.40110    0.64580    0.83890    1.000
    C96      C        0.36400    0.75930    0.91500    1.000
    C97      C        0.33990    0.32450    0.48970    1.000
    C98      C        0.40430    0.39470    0.48020    1.000
    C99      C        0.43660    0.44560    0.47970    1.000
    C100     C        0.48730    0.44460    0.45720    1.000
    C101     C        0.50710    0.39340    0.43660    1.000
    C102     C        0.47020    0.34330    0.43520    1.000
    C103     C        0.41990    0.34420    0.45710    1.000
    C104     C        0.57150    0.39260    0.41770    1.000
    C105     C        0.09250    0.07890    0.20580    1.000
    C106     C        0.14940    0.14690    0.18310    1.000
    C107     C        0.19420    0.18640    0.17420    1.000
    C108     C        0.18700    0.22580    0.14380    1.000
    C109     C        0.13480    0.22360    0.12020    1.000
    C110     C        0.09020    0.18350    0.12890    1.000
    C111     C        0.09890    0.14580    0.16110    1.000
    C112     C        0.13600    0.25930    0.08500    1.000
    C113     C        0.66010    0.17550    0.98970    1.000
    C114     C        0.59570    0.10530    0.98020    1.000
    C115     C        0.56340    0.05440    0.97970    1.000
    C116     C        0.51270    0.05540    0.95720    1.000
    C117     C        0.49290    0.10660    0.93660    1.000
    C118     C        0.52980    0.15670    0.93520    1.000
    C119     C        0.58010    0.15580    0.95710    1.000
    C120     C        0.42850    0.10740    0.91770    1.000
    C121     C        0.90750    0.42110    0.70580    1.000
    C122     C        0.85060    0.35310    0.68310    1.000
    C123     C        0.80580    0.31360    0.67420    1.000
    C124     C        0.81300    0.27420    0.64380    1.000
    C125     C        0.86520    0.27640    0.62020    1.000
    C126     C        0.90980    0.31650    0.62890    1.000
    C127     C        0.90110    0.35420    0.66110    1.000
    C128     C        0.86400    0.24070    0.58500    1.000
    S65      S        0.72310    0.81730    0.21553    1.000
    S66      S        0.63326    0.97690    0.20150    1.000
    S67      S        0.78630    0.97340    0.26526    1.000
    S68      S        0.80350    0.74630    0.12417    1.000
    S69      S        0.71628    0.90018    0.11092    1.000
    S70      S        0.87048    0.89440    0.17486    1.000
    S71      S        0.62900    0.05906    0.09976    1.000
    S72      S        0.78218    0.05274    0.15950    1.000
    S73      S        0.93206    0.04640    0.22252    1.000
    S74      S        0.80200    0.83030    0.01670    1.000
    S75      S        0.95651    0.82170    0.08256    1.000
    S76      S        0.70910    0.97730    0.00696    1.000
    S77      S        0.86740    0.97598    0.06708    1.000
    S78      S        0.01823    0.96630    0.13219    1.000
    S79      S        0.78252    0.13090    0.05239    1.000
    S80      S        0.93100    0.12730    0.11381    1.000
    S81      S        0.27690    0.68270    0.71553    1.000
    S82      S        0.36674    0.52310    0.70150    1.000
    S83      S        0.21370    0.52660    0.76526    1.000
    S84      S        0.19650    0.75370    0.62417    1.000
    S85      S        0.28372    0.59982    0.61092    1.000
    S86      S        0.12952    0.60560    0.67486    1.000
    S87      S        0.37100    0.44094    0.59976    1.000
    S88      S        0.21782    0.44726    0.65950    1.000
    S89      S        0.06794    0.45360    0.72252    1.000
    S90      S        0.19800    0.66970    0.51670    1.000
    S91      S        0.04349    0.67830    0.58256    1.000
    S92      S        0.29090    0.52270    0.50696    1.000
    S93      S        0.13260    0.52402    0.56708    1.000
    S94      S        0.98177    0.53370    0.63219    1.000
    S95      S        0.21748    0.36910    0.55239    1.000
    S96      S        0.06900    0.37270    0.61381    1.000
    S97      S        0.22310    0.18270    0.28447    1.000
    S98      S        0.13326    0.02310    0.29850    1.000
    S99      S        0.28630    0.02660    0.23474    1.000
    S100     S        0.30350    0.25370    0.37583    1.000
    S101     S        0.21628    0.09982    0.38908    1.000
    S102     S        0.37048    0.10560    0.32514    1.000
    S103     S        0.12900    0.94094    0.40024    1.000
    S104     S        0.28218    0.94726    0.34050    1.000
    S105     S        0.43206    0.95360    0.27748    1.000
    S106     S        0.30200    0.16970    0.48330    1.000
    S107     S        0.45651    0.17830    0.41744    1.000
    S108     S        0.20910    0.02270    0.49304    1.000
    S109     S        0.36740    0.02402    0.43292    1.000
    S110     S        0.51823    0.03370    0.36781    1.000
    S111     S        0.28252    0.86910    0.44761    1.000
    S112     S        0.43100    0.87270    0.38619    1.000
    S113     S        0.77690    0.31730    0.78447    1.000
    S114     S        0.86674    0.47690    0.79850    1.000
    S115     S        0.71370    0.47340    0.73474    1.000
    S116     S        0.69650    0.24630    0.87583    1.000
    S117     S        0.78372    0.40018    0.88908    1.000
    S118     S        0.62952    0.39440    0.82514    1.000
    S119     S        0.87100    0.55906    0.90024    1.000
    S120     S        0.71782    0.55274    0.84050    1.000
    S121     S        0.56794    0.54640    0.77748    1.000
    S122     S        0.69800    0.33030    0.98330    1.000
    S123     S        0.54349    0.32170    0.91744    1.000
    S124     S        0.79090    0.47730    0.99304    1.000
    S125     S        0.63260    0.47598    0.93292    1.000
    S126     S        0.48177    0.46630    0.86781    1.000
    S127     S        0.71748    0.63090    0.94761    1.000
    S128     S        0.56900    0.62730    0.88619    1.000
    N17      N        0.85380    0.62030    0.99840    1.000
    N18      N        0.87710    0.69820    0.03710    1.000
    N19      N        0.56140    0.89930    0.32360    1.000
    N20      N        0.64620    0.89730    0.28890    1.000
    N21      N        0.14620    0.87970    0.49840    1.000
    N22      N        0.12290    0.80180    0.53710    1.000
    N23      N        0.43860    0.60070    0.82360    1.000
    N24      N        0.35380    0.60270    0.78890    1.000
    N25      N        0.35380    0.37970    0.50160    1.000
    N26      N        0.37710    0.30180    0.46290    1.000
    N27      N        0.06140    0.10070    0.17640    1.000
    N28      N        0.14620    0.10270    0.21110    1.000
    N29      N        0.64620    0.12030    0.00160    1.000
    N30      N        0.62290    0.19820    0.96290    1.000
    N31      N        0.93860    0.39930    0.67640    1.000
    N32      N        0.85380    0.39730    0.71110    1.000
