# CIF file generated by openbabel 3.1.0, see https://openbabel.org
data_I
_chemical_name_common 'NATHOH_ion_b'
_cell_length_a 17.0497
_cell_length_b 17.0497
_cell_length_c 24.908
_cell_angle_alpha 120.071
_cell_angle_beta 120.071
_cell_angle_gamma 50.5976
_space_group_name_H-M_alt 'P 1'
_space_group_name_Hall 'P 1'
loop_
    _symmetry_equiv_pos_as_xyz
    x,y,z
loop_
    _atom_site_label
    _atom_site_type_symbol
    _atom_site_fract_x
    _atom_site_fract_y
    _atom_site_fract_z
    _atom_site_occupancy
    O1       O        0.53154    0.19274    0.14680    1.000
    O2       O        0.69492    0.07652    0.10970    1.000
    O3       O        0.44680    0.49000    0.17450    1.000
    O4       O        0.53593    0.22413    0.06140    1.000
    O6       O        0.39062    0.16822    0.02920    1.000
    O8       O        0.60028    0.97988    0.09770    1.000
    O10      O        0.60042    0.01662    0.98000    1.000
    O12      O        0.77290    0.87530    0.05290    1.000
    O14      O        0.72169    0.11149    0.02130    1.000
    O15      O        0.42129    0.19249    0.94010    1.000
    O17      O        0.35250    0.37870    0.10650    1.000
    O19      O        0.41654    0.13514    0.13870    1.000
    O21      O        0.71470    0.05930    0.22340    1.000
    O23      O        0.79990    0.83530    0.16140    1.000
    O24      O        0.80020    0.89060    0.95530    1.000
    O25      O        0.59560    0.07640    0.88980    1.000
    O26      O        0.22860    0.34100    0.97510    1.000
    O27      O        0.22600    0.30940    0.09250    1.000
    O28      O        0.59310    0.98490    0.21150    1.000
    O29      O        0.37190    0.34170    0.20820    1.000
    O30      O        0.53250    0.19730    0.26100    1.000
    O31      O        0.42430    0.37430    0.32580    1.000
    O32      O        0.53970    0.35070    0.27710    1.000
    O33      O        0.64500    0.26360    0.17840    1.000
    O34      O        0.88770    0.93810    0.17530    1.000
    O35      O        0.89070    0.96270    0.08450    1.000
    O36      O        0.04960    0.91260    0.17580    1.000
    O37      O        0.37342    0.39902    0.01300    1.000
    O38      O        0.41360    0.46160    0.96360    1.000
    O39      O        0.53979    0.27859    0.97570    1.000
    O40      O        0.52243    0.43483    0.07360    1.000
    O41      O        0.89520    0.09340    0.19450    1.000
    P42      P        0.60321    0.19223    0.12555    1.000
    P43      P        0.46291    0.39241    0.00625    1.000
    P44      P        0.46913    0.31755    0.26889    1.000
    P45      P        0.93071    0.97691    0.15769    1.000
    Mo46     Mo       0.35405    0.26769    0.11144    1.000
    Mo47     Mo       0.57973    0.06705    0.18489    1.000
    Mo48     Mo       0.35602    0.29486    0.01822    1.000
    Mo49     Mo       0.58378    0.13044    0.96514    1.000
    Mo50     Mo       0.74899    0.98077    0.01788    1.000
    Mo51     Mo       0.74723    0.94621    0.14469    1.000
    N52      N        0.31700    0.62060    0.40130    1.000
    N53      N        0.16030    0.75250    0.38030    1.000
    H54      H        0.09300    0.79200    0.37430    1.000
    N55      N        0.28140    0.84020    0.27090    1.000
    N56      N        0.44660    0.77580    0.28400    1.000
    H57      H        0.51200    0.72980    0.28520    1.000
    C58      C        0.21460    0.64420    0.37200    1.000
    H59      H        0.18790    0.59950    0.35180    1.000
    C60      C        0.32370    0.70130    0.41060    1.000
    H61      H        0.38650    0.69870    0.42310    1.000
    C62      C        0.22190    0.79050    0.39860    1.000
    H63      H        0.20270    0.85730    0.40230    1.000
    C64      C        0.36930    0.75690    0.26200    1.000
    H65      H        0.37860    0.68960    0.24200    1.000
    C66      C        0.29460    0.92400    0.29510    1.000
    H67      H        0.24250    0.99490    0.30380    1.000
    C68      C        0.40020    0.88440    0.30440    1.000
    H69      H        0.43250    0.92290    0.32080    1.000
    Na70     Na       0.72543    0.21023    0.29401    1.000
    Zn71     Zn       0.43896    0.47748    0.40729    1.000
    O72      O        0.80726    0.46846    0.35320    1.000
    O73      O        0.92348    0.30508    0.39030    1.000
    O74      O        0.51000    0.55320    0.32550    1.000
    O75      O        0.77587    0.46407    0.43860    1.000
    O77      O        0.83178    0.60938    0.47080    1.000
    O79      O        0.02012    0.39972    0.40230    1.000
    O81      O        0.98338    0.39958    0.52000    1.000
    O83      O        0.12470    0.22710    0.44710    1.000
    O85      O        0.88851    0.27831    0.47870    1.000
    O86      O        0.80751    0.57871    0.55990    1.000
    O88      O        0.62130    0.64750    0.39350    1.000
    O90      O        0.86486    0.58346    0.36130    1.000
    O92      O        0.94070    0.28530    0.27660    1.000
    O94      O        0.16470    0.20010    0.33860    1.000
    O95      O        0.10940    0.19980    0.54470    1.000
    O96      O        0.92360    0.40440    0.61020    1.000
    O97      O        0.65900    0.77140    0.52490    1.000
    O98      O        0.69060    0.77400    0.40750    1.000
    O99      O        0.01510    0.40690    0.28850    1.000
    O100     O        0.65830    0.62810    0.29180    1.000
    O101     O        0.80270    0.46750    0.23900    1.000
    O102     O        0.62570    0.57570    0.17420    1.000
    O103     O        0.64930    0.46030    0.22290    1.000
    O104     O        0.73640    0.35500    0.32160    1.000
    O105     O        0.06190    0.11230    0.32470    1.000
    O106     O        0.03730    0.10930    0.41550    1.000
    O107     O        0.08740    0.95040    0.32420    1.000
    O108     O        0.60098    0.62658    0.48700    1.000
    O109     O        0.53840    0.58640    0.53640    1.000
    O110     O        0.72141    0.46021    0.52430    1.000
    O111     O        0.56517    0.47757    0.42640    1.000
    O112     O        0.90660    0.10480    0.30550    1.000
    P113     P        0.80777    0.39679    0.37445    1.000
    P114     P        0.60759    0.53709    0.49375    1.000
    P115     P        0.68245    0.53087    0.23111    1.000
    P116     P        0.02309    0.06929    0.34231    1.000
    Mo117    Mo       0.73231    0.64595    0.38856    1.000
    Mo118    Mo       0.93295    0.42027    0.31511    1.000
    Mo119    Mo       0.70514    0.64398    0.48178    1.000
    Mo120    Mo       0.86956    0.41622    0.53486    1.000
    Mo121    Mo       0.01923    0.25101    0.48212    1.000
    Mo122    Mo       0.05379    0.25277    0.35531    1.000
    N123     N        0.37940    0.68300    0.09870    1.000
    N124     N        0.24750    0.83970    0.11970    1.000
    H125     H        0.20800    0.90700    0.12570    1.000
    N126     N        0.15980    0.71860    0.22910    1.000
    N127     N        0.22420    0.55340    0.21600    1.000
    H128     H        0.27020    0.48800    0.21480    1.000
    C129     C        0.35580    0.78540    0.12800    1.000
    H130     H        0.40050    0.81210    0.14820    1.000
    C131     C        0.29870    0.67630    0.08940    1.000
    H132     H        0.30130    0.61350    0.07690    1.000
    C133     C        0.20950    0.77810    0.10140    1.000
    H134     H        0.14270    0.79730    0.09770    1.000
    C135     C        0.24310    0.63070    0.23800    1.000
    H136     H        0.31040    0.62140    0.25800    1.000
    C137     C        0.07600    0.70540    0.20490    1.000
    H138     H        0.00510    0.75750    0.19620    1.000
    C139     C        0.11560    0.59980    0.19560    1.000
    H140     H        0.07710    0.56750    0.17920    1.000
    Na141    Na       0.78977    0.27457    0.20599    1.000
    Zn142    Zn       0.52252    0.56104    0.09271    1.000
    O143     O        0.46846    0.80726    0.85320    1.000
    O144     O        0.30508    0.92348    0.89030    1.000
    O145     O        0.55320    0.51000    0.82550    1.000
    O146     O        0.46407    0.77587    0.93860    1.000
    O148     O        0.60938    0.83178    0.97080    1.000
    O150     O        0.39972    0.02012    0.90230    1.000
    O152     O        0.39958    0.98338    0.02000    1.000
    O154     O        0.22710    0.12470    0.94710    1.000
    O156     O        0.27831    0.88851    0.97870    1.000
    O157     O        0.57871    0.80751    0.05990    1.000
    O159     O        0.64750    0.62130    0.89350    1.000
    O161     O        0.58346    0.86486    0.86130    1.000
    O163     O        0.28530    0.94070    0.77660    1.000
    O165     O        0.20010    0.16470    0.83860    1.000
    O166     O        0.19980    0.10940    0.04470    1.000
    O167     O        0.40440    0.92360    0.11020    1.000
    O168     O        0.77140    0.65900    0.02490    1.000
    O169     O        0.77400    0.69060    0.90750    1.000
    O170     O        0.40690    0.01510    0.78850    1.000
    O171     O        0.62810    0.65830    0.79180    1.000
    O172     O        0.46750    0.80270    0.73900    1.000
    O173     O        0.57570    0.62570    0.67420    1.000
    O174     O        0.46030    0.64930    0.72290    1.000
    O175     O        0.35500    0.73640    0.82160    1.000
    O176     O        0.11230    0.06190    0.82470    1.000
    O177     O        0.10930    0.03730    0.91550    1.000
    O178     O        0.95040    0.08740    0.82420    1.000
    O179     O        0.62658    0.60098    0.98700    1.000
    O180     O        0.58640    0.53840    0.03640    1.000
    O181     O        0.46021    0.72141    0.02430    1.000
    O182     O        0.47757    0.56517    0.92640    1.000
    O183     O        0.10480    0.90660    0.80550    1.000
    P184     P        0.39679    0.80777    0.87445    1.000
    P185     P        0.53709    0.60759    0.99375    1.000
    P186     P        0.53087    0.68245    0.73111    1.000
    P187     P        0.06929    0.02309    0.84231    1.000
    Mo188    Mo       0.64595    0.73231    0.88856    1.000
    Mo189    Mo       0.42027    0.93295    0.81511    1.000
    Mo190    Mo       0.64398    0.70514    0.98178    1.000
    Mo191    Mo       0.41622    0.86956    0.03486    1.000
    Mo192    Mo       0.25101    0.01923    0.98212    1.000
    Mo193    Mo       0.25277    0.05379    0.85531    1.000
    N194     N        0.68300    0.37940    0.59870    1.000
    N195     N        0.83970    0.24750    0.61970    1.000
    H196     H        0.90700    0.20800    0.62570    1.000
    N197     N        0.71860    0.15980    0.72910    1.000
    N198     N        0.55340    0.22420    0.71600    1.000
    H199     H        0.48800    0.27020    0.71480    1.000
    C200     C        0.78540    0.35580    0.62800    1.000
    H201     H        0.81210    0.40050    0.64820    1.000
    C202     C        0.67630    0.29870    0.58940    1.000
    H203     H        0.61350    0.30130    0.57690    1.000
    C204     C        0.77810    0.20950    0.60140    1.000
    H205     H        0.79730    0.14270    0.59770    1.000
    C206     C        0.63070    0.24310    0.73800    1.000
    H207     H        0.62140    0.31040    0.75800    1.000
    C208     C        0.70540    0.07600    0.70490    1.000
    H209     H        0.75750    0.00510    0.69620    1.000
    C210     C        0.59980    0.11560    0.69560    1.000
    H211     H        0.56750    0.07710    0.67920    1.000
    Na212    Na       0.27457    0.78977    0.70599    1.000
    Zn213    Zn       0.56104    0.52252    0.59271    1.000
    O214     O        0.19274    0.53154    0.64680    1.000
    O215     O        0.07652    0.69492    0.60970    1.000
    O216     O        0.49000    0.44680    0.67450    1.000
    O217     O        0.22413    0.53593    0.56140    1.000
    O219     O        0.16822    0.39062    0.52920    1.000
    O221     O        0.97988    0.60028    0.59770    1.000
    O223     O        0.01662    0.60042    0.48000    1.000
    O225     O        0.87530    0.77290    0.55290    1.000
    O227     O        0.11149    0.72169    0.52130    1.000
    O228     O        0.19249    0.42129    0.44010    1.000
    O230     O        0.37870    0.35250    0.60650    1.000
    O232     O        0.13514    0.41654    0.63870    1.000
    O234     O        0.05930    0.71470    0.72340    1.000
    O236     O        0.83530    0.79990    0.66140    1.000
    O237     O        0.89060    0.80020    0.45530    1.000
    O238     O        0.07640    0.59560    0.38980    1.000
    O239     O        0.34100    0.22860    0.47510    1.000
    O240     O        0.30940    0.22600    0.59250    1.000
    O241     O        0.98490    0.59310    0.71150    1.000
    O242     O        0.34170    0.37190    0.70820    1.000
    O243     O        0.19730    0.53250    0.76100    1.000
    O244     O        0.37430    0.42430    0.82580    1.000
    O245     O        0.35070    0.53970    0.77710    1.000
    O246     O        0.26360    0.64500    0.67840    1.000
    O247     O        0.93810    0.88770    0.67530    1.000
    O248     O        0.96270    0.89070    0.58450    1.000
    O249     O        0.91260    0.04960    0.67580    1.000
    O250     O        0.39902    0.37342    0.51300    1.000
    O251     O        0.46160    0.41360    0.46360    1.000
    O252     O        0.27859    0.53979    0.47570    1.000
    O253     O        0.43483    0.52243    0.57360    1.000
    O254     O        0.09340    0.89520    0.69450    1.000
    P255     P        0.19223    0.60321    0.62555    1.000
    P256     P        0.39241    0.46291    0.50625    1.000
    P257     P        0.31755    0.46913    0.76889    1.000
    P258     P        0.97691    0.93071    0.65769    1.000
    Mo259    Mo       0.26769    0.35405    0.61144    1.000
    Mo260    Mo       0.06705    0.57973    0.68489    1.000
    Mo261    Mo       0.29486    0.35602    0.51822    1.000
    Mo262    Mo       0.13044    0.58378    0.46514    1.000
    Mo263    Mo       0.98077    0.74899    0.51788    1.000
    Mo264    Mo       0.94621    0.74723    0.64469    1.000
    N265     N        0.62060    0.31700    0.90130    1.000
    N266     N        0.75250    0.16030    0.88030    1.000
    H267     H        0.79200    0.09300    0.87430    1.000
    N268     N        0.84020    0.28140    0.77090    1.000
    N269     N        0.77580    0.44660    0.78400    1.000
    H270     H        0.72980    0.51200    0.78520    1.000
    C271     C        0.64420    0.21460    0.87200    1.000
    H272     H        0.59950    0.18790    0.85180    1.000
    C273     C        0.70130    0.32370    0.91060    1.000
    H274     H        0.69870    0.38650    0.92310    1.000
    C275     C        0.79050    0.22190    0.89860    1.000
    H276     H        0.85730    0.20270    0.90230    1.000
    C277     C        0.75690    0.36930    0.76200    1.000
    H278     H        0.68960    0.37860    0.74200    1.000
    C279     C        0.92400    0.29460    0.79510    1.000
    H280     H        0.99490    0.24250    0.80380    1.000
    C281     C        0.88440    0.40020    0.80440    1.000
    H282     H        0.92290    0.43250    0.82080    1.000
    Na283    Na       0.21023    0.72543    0.79401    1.000
    Zn284    Zn       0.47748    0.43896    0.90729    1.000
    Mn285    Mn       0.50000    0.00000    0.00000    1.000
    Mn286    Mn       0.00000    0.50000    0.50000    1.000
    Mn287    Mn       0.58248    0.41752    0.25000    1.000
    Zn288    Zn       0.14334    0.85666    0.25000    1.000
    Mn289    Mn       0.41752    0.58248    0.75000    1.000
    Zn290    Zn       0.85666    0.14334    0.75000    1.000
