# CIF file generated by openbabel 3.1.0, see https://openbabel.org
data_I
_chemical_name_common 'image0'
_cell_length_a 10.92
_cell_length_b 12.842
_cell_length_c 13.279
_cell_angle_alpha 90
_cell_angle_beta 90
_cell_angle_gamma 90
_space_group_name_H-M_alt 'P 1'
_space_group_name_Hall 'P 1'
loop_
    _symmetry_equiv_pos_as_xyz
    x,y,z
loop_
    _atom_site_label
    _atom_site_type_symbol
    _atom_site_fract_x
    _atom_site_fract_y
    _atom_site_fract_z
    _atom_site_occupancy
    N1       N        0.62960    0.39070    0.21090    1.000
    C1       C        0.55600    0.44320    0.18170    1.000
    C2       C        0.47120    0.51690    0.14070    1.000
    H1       H        0.47140    0.57830    0.18320    1.000
    H2       H        0.38970    0.48710    0.14350    1.000
    C3       C        0.49700    0.55140    0.03070    1.000
    H3       H        0.57410    0.58870    0.02650    1.000
    H4       H        0.43210    0.59600    0.00600    1.000
    C4       C        0.44060    0.48900    0.02990    1.000
    H5       H        0.41750    0.41630    0.02410    1.000
    H6       H        0.37390    0.53180    0.00510    1.000
    N2       N        0.85590    0.28890    0.39040    1.000
    C5       C        0.92020    0.31280    0.45260    1.000
    C6       C        0.01280    0.35260    0.51780    1.000
    H7       H        0.08290    0.30620    0.51490    1.000
    H8       H        0.98190    0.35120    0.58630    1.000
    C7       C        0.05720    0.46450    0.49400    1.000
    H9       H        0.08970    0.46850    0.42650    1.000
    H10      H        0.12070    0.48530    0.54130    1.000
    C8       C        0.99000    0.46750    0.54860    1.000
    H11      H        0.04750    0.48870    0.60050    1.000
    H12      H        0.90760    0.47640    0.57390    1.000
    N3       N        0.62960    0.10930    0.28910    1.000
    C9       C        0.55600    0.05680    0.31830    1.000
    C10      C        0.47120    0.98310    0.35930    1.000
    H13      H        0.47140    0.92170    0.31680    1.000
    H14      H        0.38970    0.01290    0.35650    1.000
    C11      C        0.49700    0.94860    0.46930    1.000
    H15      H        0.57410    0.91130    0.47350    1.000
    H16      H        0.43210    0.90400    0.49400    1.000
    C12      C        0.44060    0.01100    0.47010    1.000
    H17      H        0.41750    0.08370    0.47590    1.000
    H18      H        0.37390    0.96820    0.49490    1.000
    N4       N        0.85590    0.21110    0.10960    1.000
    C13      C        0.92020    0.18720    0.04740    1.000
    C14      C        0.01280    0.14740    0.98220    1.000
    H19      H        0.08290    0.19380    0.98510    1.000
    H20      H        0.98190    0.14880    0.91370    1.000
    C15      C        0.05720    0.03550    0.00600    1.000
    H21      H        0.08970    0.03150    0.07350    1.000
    H22      H        0.12070    0.01470    0.95870    1.000
    C16      C        0.99000    0.03250    0.95140    1.000
    H23      H        0.04750    0.01130    0.89950    1.000
    H24      H        0.90760    0.02360    0.92610    1.000
    N5       N        0.37040    0.60930    0.78910    1.000
    C17      C        0.44400    0.55680    0.81830    1.000
    C18      C        0.52880    0.48310    0.85930    1.000
    H25      H        0.52860    0.42170    0.81680    1.000
    H26      H        0.61030    0.51290    0.85650    1.000
    C19      C        0.50300    0.44860    0.96930    1.000
    H27      H        0.42590    0.41130    0.97350    1.000
    H28      H        0.56790    0.40400    0.99400    1.000
    C20      C        0.55940    0.51100    0.97010    1.000
    H29      H        0.58250    0.58370    0.97590    1.000
    H30      H        0.62610    0.46820    0.99490    1.000
    N6       N        0.14410    0.71110    0.60960    1.000
    C21      C        0.07980    0.68720    0.54740    1.000
    C22      C        0.98720    0.64740    0.48220    1.000
    H31      H        0.91710    0.69380    0.48510    1.000
    H32      H        0.01810    0.64880    0.41370    1.000
    C23      C        0.94280    0.53550    0.50600    1.000
    H33      H        0.91030    0.53150    0.57350    1.000
    H34      H        0.87930    0.51470    0.45870    1.000
    C24      C        0.01000    0.53250    0.45140    1.000
    H35      H        0.95250    0.51130    0.39950    1.000
    H36      H        0.09240    0.52360    0.42610    1.000
    N7       N        0.37040    0.89070    0.71090    1.000
    C25      C        0.44400    0.94320    0.68170    1.000
    C26      C        0.52880    0.01690    0.64070    1.000
    H37      H        0.52860    0.07830    0.68320    1.000
    H38      H        0.61030    0.98710    0.64350    1.000
    C27      C        0.50300    0.05140    0.53070    1.000
    H39      H        0.42590    0.08870    0.52650    1.000
    H40      H        0.56790    0.09600    0.50600    1.000
    C28      C        0.55940    0.98900    0.52990    1.000
    H41      H        0.58250    0.91630    0.52410    1.000
    H42      H        0.62610    0.03180    0.50510    1.000
    N8       N        0.14410    0.78890    0.89040    1.000
    C29      C        0.07980    0.81280    0.95260    1.000
    C30      C        0.98720    0.85260    0.01780    1.000
    H43      H        0.91710    0.80620    0.01490    1.000
    H44      H        0.01810    0.85120    0.08630    1.000
    C31      C        0.94280    0.96450    0.99400    1.000
    H45      H        0.91030    0.96850    0.92650    1.000
    H46      H        0.87930    0.98530    0.04130    1.000
    C32      C        0.01000    0.96750    0.04860    1.000
    H47      H        0.95250    0.98870    0.10050    1.000
    H48      H        0.09240    0.97640    0.07390    1.000
    Ag1      Ag       0.74816    0.25000    0.25000    1.000
    Ag2      Ag       0.25184    0.75000    0.75000    1.000
    N9       N        0.87040    0.39070    0.78910    1.000
    C33      C        0.94400    0.44320    0.81830    1.000
    C34      C        0.02880    0.51690    0.85930    1.000
    H49      H        0.02860    0.57830    0.81680    1.000
    H50      H        0.11030    0.48710    0.85650    1.000
    C35      C        0.00300    0.55140    0.96930    1.000
    H51      H        0.92590    0.58870    0.97350    1.000
    H52      H        0.06790    0.59600    0.99400    1.000
    C36      C        0.05940    0.48900    0.97010    1.000
    H53      H        0.08250    0.41630    0.97590    1.000
    H54      H        0.12610    0.53180    0.99490    1.000
    N10      N        0.64410    0.28890    0.60960    1.000
    C37      C        0.57980    0.31280    0.54740    1.000
    C38      C        0.48720    0.35260    0.48220    1.000
    H55      H        0.41710    0.30620    0.48510    1.000
    H56      H        0.51810    0.35120    0.41370    1.000
    C39      C        0.44280    0.46450    0.50600    1.000
    H57      H        0.41030    0.46850    0.57350    1.000
    H58      H        0.37930    0.48530    0.45870    1.000
    C40      C        0.51000    0.46750    0.45140    1.000
    H59      H        0.45250    0.48870    0.39950    1.000
    H60      H        0.59240    0.47640    0.42610    1.000
    N11      N        0.87040    0.10930    0.71090    1.000
    C41      C        0.94400    0.05680    0.68170    1.000
    C42      C        0.02880    0.98310    0.64070    1.000
    H61      H        0.02860    0.92170    0.68320    1.000
    H62      H        0.11030    0.01290    0.64350    1.000
    C43      C        0.00300    0.94860    0.53070    1.000
    H63      H        0.92590    0.91130    0.52650    1.000
    H64      H        0.06790    0.90400    0.50600    1.000
    C44      C        0.05940    0.01100    0.52990    1.000
    H65      H        0.08250    0.08370    0.52410    1.000
    H66      H        0.12610    0.96820    0.50510    1.000
    N12      N        0.64410    0.21110    0.89040    1.000
    C45      C        0.57980    0.18720    0.95260    1.000
    C46      C        0.48720    0.14740    0.01780    1.000
    H67      H        0.41710    0.19380    0.01490    1.000
    H68      H        0.51810    0.14880    0.08630    1.000
    C47      C        0.44280    0.03550    0.99400    1.000
    H69      H        0.41030    0.03150    0.92650    1.000
    H70      H        0.37930    0.01470    0.04130    1.000
    C48      C        0.51000    0.03250    0.04860    1.000
    H71      H        0.45250    0.01130    0.10050    1.000
    H72      H        0.59240    0.02360    0.07390    1.000
    N13      N        0.12960    0.60930    0.21090    1.000
    C49      C        0.05600    0.55680    0.18170    1.000
    C50      C        0.97120    0.48310    0.14070    1.000
    H73      H        0.97140    0.42170    0.18320    1.000
    H74      H        0.88970    0.51290    0.14350    1.000
    C51      C        0.99700    0.44860    0.03070    1.000
    H75      H        0.07410    0.41130    0.02650    1.000
    H76      H        0.93210    0.40400    0.00600    1.000
    C52      C        0.94060    0.51100    0.02990    1.000
    H77      H        0.91750    0.58370    0.02410    1.000
    H78      H        0.87390    0.46820    0.00510    1.000
    N14      N        0.35590    0.71110    0.39040    1.000
    C53      C        0.42020    0.68720    0.45260    1.000
    C54      C        0.51280    0.64740    0.51780    1.000
    H79      H        0.58290    0.69380    0.51490    1.000
    H80      H        0.48190    0.64880    0.58630    1.000
    C55      C        0.55720    0.53550    0.49400    1.000
    H81      H        0.58970    0.53150    0.42650    1.000
    H82      H        0.62070    0.51470    0.54130    1.000
    C56      C        0.49000    0.53250    0.54860    1.000
    H83      H        0.54750    0.51130    0.60050    1.000
    H84      H        0.40760    0.52360    0.57390    1.000
    N15      N        0.12960    0.89070    0.28910    1.000
    C57      C        0.05600    0.94320    0.31830    1.000
    C58      C        0.97120    0.01690    0.35930    1.000
    H85      H        0.97140    0.07830    0.31680    1.000
    H86      H        0.88970    0.98710    0.35650    1.000
    C59      C        0.99700    0.05140    0.46930    1.000
    H87      H        0.07410    0.08870    0.47350    1.000
    H88      H        0.93210    0.09600    0.49400    1.000
    C60      C        0.94060    0.98900    0.47010    1.000
    H89      H        0.91750    0.91630    0.47590    1.000
    H90      H        0.87390    0.03180    0.49490    1.000
    N16      N        0.35590    0.78890    0.10960    1.000
    C61      C        0.42020    0.81280    0.04740    1.000
    C62      C        0.51280    0.85260    0.98220    1.000
    H91      H        0.58290    0.80620    0.98510    1.000
    H92      H        0.48190    0.85120    0.91370    1.000
    C63      C        0.55720    0.96450    0.00600    1.000
    H93      H        0.58970    0.96850    0.07350    1.000
    H94      H        0.62070    0.98530    0.95870    1.000
    C64      C        0.49000    0.96750    0.95140    1.000
    H95      H        0.54750    0.98870    0.89950    1.000
    H96      H        0.40760    0.97640    0.92610    1.000
    Ag3      Ag       0.75184    0.25000    0.75000    1.000
    Ag4      Ag       0.24816    0.75000    0.25000    1.000
