# CIF file generated by openbabel 3.1.0, see https://openbabel.org
data_I
_chemical_name_common 'ZOXNEH_clean'
_cell_length_a 6.9437
_cell_length_b 13.3226
_cell_length_c 16.3848
_cell_angle_alpha 90
_cell_angle_beta 90
_cell_angle_gamma 90
_space_group_name_H-M_alt 'P 1'
_space_group_name_Hall 'P 1'
loop_
    _symmetry_equiv_pos_as_xyz
    x,y,z
loop_
    _atom_site_label
    _atom_site_type_symbol
    _atom_site_fract_x
    _atom_site_fract_y
    _atom_site_fract_z
    _atom_site_occupancy
    Cd1      Cd       0.50000    0.22364    0.34059    1.000
    Cd2      Cd       0.00000    0.27636    0.84059    1.000
    Cd3      Cd       0.00000    0.72364    0.15941    1.000
    Cd4      Cd       0.50000    0.77636    0.65941    1.000
    H1       H        0.00000    0.01520    0.33840    1.000
    H2       H        0.00000    0.98480    0.66160    1.000
    H3       H        0.00000    0.74840    0.45230    1.000
    H4       H        0.50000    0.75160    0.95230    1.000
    H5       H        0.50000    0.51520    0.16160    1.000
    H6       H        0.50000    0.48480    0.83840    1.000
    H7       H        0.50000    0.24840    0.04770    1.000
    H8       H        0.00000    0.25160    0.54770    1.000
    C1       C        0.50000    0.31810    0.04450    1.000
    C2       C        0.00000    0.12340    0.61720    1.000
    C3       C        0.00000    0.87660    0.38280    1.000
    C4       C        0.00000    0.81810    0.45550    1.000
    C5       C        0.50000    0.47820    0.11350    1.000
    C6       C        0.50000    0.67710    0.80140    1.000
    C7       C        0.50000    0.36400    0.97000    1.000
    C8       C        0.50000    0.32290    0.19860    1.000
    C9       C        0.00000    0.86400    0.53000    1.000
    C10      C        0.50000    0.37660    0.11720    1.000
    C11      C        0.00000    0.02180    0.61350    1.000
    C12      C        0.00000    0.18190    0.54450    1.000
    C13      C        0.00000    0.82290    0.30140    1.000
    C14      C        0.50000    0.63600    0.03000    1.000
    C15      C        0.00000    0.13600    0.47000    1.000
    C16      C        0.00000    0.97820    0.38650    1.000
    C17      C        0.50000    0.52960    0.03660    1.000
    C18      C        0.50000    0.47040    0.96340    1.000
    C19      C        0.00000    0.17710    0.69860    1.000
    C20      C        0.50000    0.68190    0.95550    1.000
    C21      C        0.00000    0.97040    0.53660    1.000
    C22      C        0.50000    0.52180    0.88650    1.000
    C23      C        0.00000    0.02960    0.46340    1.000
    C24      C        0.50000    0.62340    0.88280    1.000
    S1       S        0.50000    0.71573    0.11820    1.000
    S2       S        0.50000    0.28427    0.88180    1.000
    S3       S        0.00000    0.21573    0.38180    1.000
    S4       S        0.00000    0.78427    0.61820    1.000
    O1       O        0.32870    0.69050    0.16550    1.000
    O2       O        0.32870    0.30950    0.83450    1.000
    O3       O        0.00000    0.87290    0.23670    1.000
    O4       O        0.00000    0.68330    0.58730    1.000
    O5       O        0.00000    0.31670    0.41270    1.000
    O6       O        0.82870    0.80950    0.66550    1.000
    O7       O        0.82870    0.19050    0.33450    1.000
    O8       O        0.50000    0.37290    0.26330    1.000
    O9       O        0.17130    0.80950    0.66550    1.000
    O10      O        0.50000    0.81670    0.08730    1.000
    O11      O        0.00000    0.27100    0.69870    1.000
    O12      O        0.50000    0.18330    0.91270    1.000
    O13      O        0.00000    0.72900    0.30130    1.000
    O14      O        0.50000    0.62710    0.73670    1.000
    O15      O        0.50000    0.22900    0.19870    1.000
    O16      O        0.00000    0.12710    0.76330    1.000
    O17      O        0.17130    0.19050    0.33450    1.000
    O18      O        0.67130    0.30950    0.83450    1.000
    O19      O        0.67130    0.69050    0.16550    1.000
    O20      O        0.50000    0.77100    0.80130    1.000
