# CIF file generated by openbabel 3.1.0, see https://openbabel.org
data_I
_chemical_name_common 'image0'
_cell_length_a 25.667
_cell_length_b 13.076
_cell_length_c 8.725
_cell_angle_alpha 90
_cell_angle_beta 95.07
_cell_angle_gamma 90
_space_group_name_H-M_alt 'P 1'
_space_group_name_Hall 'P 1'
loop_
    _symmetry_equiv_pos_as_xyz
    x,y,z
loop_
    _atom_site_label
    _atom_site_type_symbol
    _atom_site_fract_x
    _atom_site_fract_y
    _atom_site_fract_z
    _atom_site_occupancy
    Cu1      Cu       0.29264    0.29674    0.06182    1.000
    O1       O        0.25179    0.29209    0.24320    1.000
    O2       O        0.17892    0.21720    0.14010    1.000
    O3       O        0.18381    0.65509    0.39210    1.000
    O4       O        0.25549    0.57623    0.49320    1.000
    N1       N        0.35746    0.36600    0.20350    1.000
    C1       C        0.20543    0.26250    0.24830    1.000
    C2       C        0.17914    0.28470    0.39430    1.000
    H1       H        0.18590    0.22850    0.46590    1.000
    H2       H        0.14160    0.28890    0.36920    1.000
    C3       C        0.19838    0.38430    0.47190    1.000
    H3       H        0.18120    0.39390    0.56550    1.000
    H4       H        0.23570    0.37950    0.49990    1.000
    C4       C        0.18730    0.47620    0.36700    1.000
    H5       H        0.20010    0.46090    0.26810    1.000
    H6       H        0.14970    0.48470    0.35010    1.000
    C5       C        0.21093    0.57720    0.42370    1.000
    C6       C        0.39522    0.30880    0.27120    1.000
    H7       H        0.39610    0.23990    0.24540    1.000
    C7       C        0.43319    0.34580    0.37780    1.000
    H8       H        0.45930    0.30230    0.42010    1.000
    C8       C        0.43277    0.44610    0.42190    1.000
    C9       C        0.39278    0.50660    0.35090    1.000
    H9       H        0.39080    0.57560    0.37570    1.000
    C10      C        0.35666    0.46470    0.24550    1.000
    H10      H        0.33020    0.50650    0.20050    1.000
    C11      C        0.47480    0.48970    0.53540    1.000
    H11      H        0.46230    0.55300    0.57700    1.000
    H12      H        0.48150    0.44210    0.62010    1.000
    Cu2      Cu       0.79264    0.79674    0.06182    1.000
    O5       O        0.75179    0.79209    0.24320    1.000
    O6       O        0.67892    0.71720    0.14010    1.000
    O7       O        0.68381    0.15509    0.39210    1.000
    O8       O        0.75549    0.07623    0.49320    1.000
    N2       N        0.85746    0.86600    0.20350    1.000
    C12      C        0.70543    0.76250    0.24830    1.000
    C13      C        0.67914    0.78470    0.39430    1.000
    H13      H        0.68590    0.72850    0.46590    1.000
    H14      H        0.64160    0.78890    0.36920    1.000
    C14      C        0.69838    0.88430    0.47190    1.000
    H15      H        0.68120    0.89390    0.56550    1.000
    H16      H        0.73570    0.87950    0.49990    1.000
    C15      C        0.68730    0.97620    0.36700    1.000
    H17      H        0.70010    0.96090    0.26810    1.000
    H18      H        0.64970    0.98470    0.35010    1.000
    C16      C        0.71093    0.07720    0.42370    1.000
    C17      C        0.89522    0.80880    0.27120    1.000
    H19      H        0.89610    0.73990    0.24540    1.000
    C18      C        0.93319    0.84580    0.37780    1.000
    H20      H        0.95930    0.80230    0.42010    1.000
    C19      C        0.93277    0.94610    0.42190    1.000
    C20      C        0.89278    0.00660    0.35090    1.000
    H21      H        0.89080    0.07560    0.37570    1.000
    C21      C        0.85666    0.96470    0.24550    1.000
    H22      H        0.83020    0.00650    0.20050    1.000
    C22      C        0.97480    0.98970    0.53540    1.000
    H23      H        0.96230    0.05300    0.57700    1.000
    H24      H        0.98150    0.94210    0.62010    1.000
    Cu3      Cu       0.70736    0.29674    0.43818    1.000
    O9       O        0.74821    0.29209    0.25680    1.000
    O10      O        0.82108    0.21720    0.35990    1.000
    O11      O        0.81619    0.65509    0.10790    1.000
    O12      O        0.74451    0.57623    0.00680    1.000
    N3       N        0.64254    0.36600    0.29650    1.000
    C23      C        0.79457    0.26250    0.25170    1.000
    C24      C        0.82086    0.28470    0.10570    1.000
    H25      H        0.81410    0.22850    0.03410    1.000
    H26      H        0.85840    0.28890    0.13080    1.000
    C25      C        0.80162    0.38430    0.02810    1.000
    H27      H        0.81880    0.39390    0.93450    1.000
    H28      H        0.76430    0.37950    0.00010    1.000
    C26      C        0.81270    0.47620    0.13300    1.000
    H29      H        0.79990    0.46090    0.23190    1.000
    H30      H        0.85030    0.48470    0.14990    1.000
    C27      C        0.78907    0.57720    0.07630    1.000
    C28      C        0.60478    0.30880    0.22880    1.000
    H31      H        0.60390    0.23990    0.25460    1.000
    C29      C        0.56681    0.34580    0.12220    1.000
    H32      H        0.54070    0.30230    0.07990    1.000
    C30      C        0.56723    0.44610    0.07810    1.000
    C31      C        0.60722    0.50660    0.14910    1.000
    H33      H        0.60920    0.57560    0.12430    1.000
    C32      C        0.64334    0.46470    0.25450    1.000
    H34      H        0.66980    0.50650    0.29950    1.000
    C33      C        0.52520    0.48970    0.96460    1.000
    H35      H        0.53770    0.55300    0.92300    1.000
    H36      H        0.51850    0.44210    0.87990    1.000
    Cu4      Cu       0.20736    0.79674    0.43818    1.000
    O13      O        0.24821    0.79209    0.25680    1.000
    O14      O        0.32108    0.71720    0.35990    1.000
    O15      O        0.31619    0.15509    0.10790    1.000
    O16      O        0.24451    0.07623    0.00680    1.000
    N4       N        0.14254    0.86600    0.29650    1.000
    C34      C        0.29457    0.76250    0.25170    1.000
    C35      C        0.32086    0.78470    0.10570    1.000
    H37      H        0.31410    0.72850    0.03410    1.000
    H38      H        0.35840    0.78890    0.13080    1.000
    C36      C        0.30162    0.88430    0.02810    1.000
    H39      H        0.31880    0.89390    0.93450    1.000
    H40      H        0.26430    0.87950    0.00010    1.000
    C37      C        0.31270    0.97620    0.13300    1.000
    H41      H        0.29990    0.96090    0.23190    1.000
    H42      H        0.35030    0.98470    0.14990    1.000
    C38      C        0.28907    0.07720    0.07630    1.000
    C39      C        0.10478    0.80880    0.22880    1.000
    H43      H        0.10390    0.73990    0.25460    1.000
    C40      C        0.06681    0.84580    0.12220    1.000
    H44      H        0.04070    0.80230    0.07990    1.000
    C41      C        0.06723    0.94610    0.07810    1.000
    C42      C        0.10722    0.00660    0.14910    1.000
    H45      H        0.10920    0.07560    0.12430    1.000
    C43      C        0.14334    0.96470    0.25450    1.000
    H46      H        0.16980    0.00650    0.29950    1.000
    C44      C        0.02520    0.98970    0.96460    1.000
    H47      H        0.03770    0.05300    0.92300    1.000
    H48      H        0.01850    0.94210    0.87990    1.000
    Cu5      Cu       0.70736    0.70326    0.93818    1.000
    O17      O        0.74821    0.70791    0.75680    1.000
    O18      O        0.82108    0.78280    0.85990    1.000
    O19      O        0.81619    0.34491    0.60790    1.000
    O20      O        0.74451    0.42377    0.50680    1.000
    N5       N        0.64254    0.63400    0.79650    1.000
    C45      C        0.79457    0.73750    0.75170    1.000
    C46      C        0.82086    0.71530    0.60570    1.000
    H49      H        0.81410    0.77150    0.53410    1.000
    H50      H        0.85840    0.71110    0.63080    1.000
    C47      C        0.80162    0.61570    0.52810    1.000
    H51      H        0.81880    0.60610    0.43450    1.000
    H52      H        0.76430    0.62050    0.50010    1.000
    C48      C        0.81270    0.52380    0.63300    1.000
    H53      H        0.79990    0.53910    0.73190    1.000
    H54      H        0.85030    0.51530    0.64990    1.000
    C49      C        0.78907    0.42280    0.57630    1.000
    C50      C        0.60478    0.69120    0.72880    1.000
    H55      H        0.60390    0.76010    0.75460    1.000
    C51      C        0.56681    0.65420    0.62220    1.000
    H56      H        0.54070    0.69770    0.57990    1.000
    C52      C        0.56723    0.55390    0.57810    1.000
    C53      C        0.60722    0.49340    0.64910    1.000
    H57      H        0.60920    0.42440    0.62430    1.000
    C54      C        0.64334    0.53530    0.75450    1.000
    H58      H        0.66980    0.49350    0.79950    1.000
    C55      C        0.52520    0.51030    0.46460    1.000
    H59      H        0.53770    0.44700    0.42300    1.000
    H60      H        0.51850    0.55790    0.37990    1.000
    Cu6      Cu       0.20736    0.20326    0.93818    1.000
    O21      O        0.24821    0.20791    0.75680    1.000
    O22      O        0.32108    0.28280    0.85990    1.000
    O23      O        0.31619    0.84491    0.60790    1.000
    O24      O        0.24451    0.92377    0.50680    1.000
    N6       N        0.14254    0.13400    0.79650    1.000
    C56      C        0.29457    0.23750    0.75170    1.000
    C57      C        0.32086    0.21530    0.60570    1.000
    H61      H        0.31410    0.27150    0.53410    1.000
    H62      H        0.35840    0.21110    0.63080    1.000
    C58      C        0.30162    0.11570    0.52810    1.000
    H63      H        0.31880    0.10610    0.43450    1.000
    H64      H        0.26430    0.12050    0.50010    1.000
    C59      C        0.31270    0.02380    0.63300    1.000
    H65      H        0.29990    0.03910    0.73190    1.000
    H66      H        0.35030    0.01530    0.64990    1.000
    C60      C        0.28907    0.92280    0.57630    1.000
    C61      C        0.10478    0.19120    0.72880    1.000
    H67      H        0.10390    0.26010    0.75460    1.000
    C62      C        0.06681    0.15420    0.62220    1.000
    H68      H        0.04070    0.19770    0.57990    1.000
    C63      C        0.06723    0.05390    0.57810    1.000
    C64      C        0.10722    0.99340    0.64910    1.000
    H69      H        0.10920    0.92440    0.62430    1.000
    C65      C        0.14334    0.03530    0.75450    1.000
    H70      H        0.16980    0.99350    0.79950    1.000
    C66      C        0.02520    0.01030    0.46460    1.000
    H71      H        0.03770    0.94700    0.42300    1.000
    H72      H        0.01850    0.05790    0.37990    1.000
    Cu7      Cu       0.29264    0.70326    0.56182    1.000
    O25      O        0.25179    0.70791    0.74320    1.000
    O26      O        0.17892    0.78280    0.64010    1.000
    O27      O        0.18381    0.34491    0.89210    1.000
    O28      O        0.25549    0.42377    0.99320    1.000
    N7       N        0.35746    0.63400    0.70350    1.000
    C67      C        0.20543    0.73750    0.74830    1.000
    C68      C        0.17914    0.71530    0.89430    1.000
    H73      H        0.18590    0.77150    0.96590    1.000
    H74      H        0.14160    0.71110    0.86920    1.000
    C69      C        0.19838    0.61570    0.97190    1.000
    H75      H        0.18120    0.60610    0.06550    1.000
    H76      H        0.23570    0.62050    0.99990    1.000
    C70      C        0.18730    0.52380    0.86700    1.000
    H77      H        0.20010    0.53910    0.76810    1.000
    H78      H        0.14970    0.51530    0.85010    1.000
    C71      C        0.21093    0.42280    0.92370    1.000
    C72      C        0.39522    0.69120    0.77120    1.000
    H79      H        0.39610    0.76010    0.74540    1.000
    C73      C        0.43319    0.65420    0.87780    1.000
    H80      H        0.45930    0.69770    0.92010    1.000
    C74      C        0.43277    0.55390    0.92190    1.000
    C75      C        0.39278    0.49340    0.85090    1.000
    H81      H        0.39080    0.42440    0.87570    1.000
    C76      C        0.35666    0.53530    0.74550    1.000
    H82      H        0.33020    0.49350    0.70050    1.000
    C77      C        0.47480    0.51030    0.03540    1.000
    H83      H        0.46230    0.44700    0.07700    1.000
    H84      H        0.48150    0.55790    0.12010    1.000
    Cu8      Cu       0.79264    0.20326    0.56182    1.000
    O29      O        0.75179    0.20791    0.74320    1.000
    O30      O        0.67892    0.28280    0.64010    1.000
    O31      O        0.68381    0.84491    0.89210    1.000
    O32      O        0.75549    0.92377    0.99320    1.000
    N8       N        0.85746    0.13400    0.70350    1.000
    C78      C        0.70543    0.23750    0.74830    1.000
    C79      C        0.67914    0.21530    0.89430    1.000
    H85      H        0.68590    0.27150    0.96590    1.000
    H86      H        0.64160    0.21110    0.86920    1.000
    C80      C        0.69838    0.11570    0.97190    1.000
    H87      H        0.68120    0.10610    0.06550    1.000
    H88      H        0.73570    0.12050    0.99990    1.000
    C81      C        0.68730    0.02380    0.86700    1.000
    H89      H        0.70010    0.03910    0.76810    1.000
    H90      H        0.64970    0.01530    0.85010    1.000
    C82      C        0.71093    0.92280    0.92370    1.000
    C83      C        0.89522    0.19120    0.77120    1.000
    H91      H        0.89610    0.26010    0.74540    1.000
    C84      C        0.93319    0.15420    0.87780    1.000
    H92      H        0.95930    0.19770    0.92010    1.000
    C85      C        0.93277    0.05390    0.92190    1.000
    C86      C        0.89278    0.99340    0.85090    1.000
    H93      H        0.89080    0.92440    0.87570    1.000
    C87      C        0.85666    0.03530    0.74550    1.000
    H94      H        0.83020    0.99350    0.70050    1.000
    C88      C        0.97480    0.01030    0.03540    1.000
    H95      H        0.96230    0.94700    0.07700    1.000
    H96      H        0.98150    0.05790    0.12010    1.000
