# CIF file generated by openbabel 3.1.0, see https://openbabel.org
data_I
_chemical_name_common 'VEBHUG_clean'
_cell_length_a 20.6362
_cell_length_b 20.6362
_cell_length_c 20.6362
_cell_angle_alpha 120
_cell_angle_beta 120
_cell_angle_gamma 60
_space_group_name_H-M_alt 'P 1'
_space_group_name_Hall 'P 1'
loop_
    _symmetry_equiv_pos_as_xyz
    x,y,z
loop_
    _atom_site_label
    _atom_site_type_symbol
    _atom_site_fract_x
    _atom_site_fract_y
    _atom_site_fract_z
    _atom_site_occupancy
    Zn1      Zn       0.21161    0.21160    0.78839    1.000
    Zn2      Zn       0.21161    0.36517    0.78839    1.000
    Zn3      Zn       0.21161    0.21160    0.63482    1.000
    Zn4      Zn       0.36518    0.21160    0.78839    1.000
    H5       H        0.53740    0.34860    0.94300    1.000
    H6       H        0.05700    0.05700    0.65140    1.000
    H7       H        0.34860    0.05700    0.46260    1.000
    H8       H        0.05700    0.53740    0.94300    1.000
    H9       H        0.53740    0.05700    0.94300    1.000
    H10      H        0.05700    0.53740    0.65140    1.000
    S11      S        0.04740    0.04740    0.49600    1.000
    C12      C        0.50400    0.40120    0.95260    1.000
    C13      C        0.04740    0.04740    0.59880    1.000
    S14      S        0.40120    0.50400    0.95260    1.000
    S15      S        0.50400    0.04740    0.59880    1.000
    S16      S        0.04740    0.40120    0.95260    1.000
    C17      C        0.40120    0.04740    0.49600    1.000
    C18      C        0.04740    0.50400    0.95260    1.000
    S19      S        0.40120    0.04740    0.95260    1.000
    S20      S        0.04740    0.40120    0.49600    1.000
    C21      C        0.50400    0.04740    0.95260    1.000
    C22      C        0.04740    0.50400    0.59880    1.000
    C23      C        0.12824    0.12824    0.62824    1.000
    C24      C        0.07711    0.07711    0.57711    1.000
    C25      C        0.37176    0.37176    0.87176    1.000
    C26      C        0.42289    0.42289    0.92289    1.000
    C27      C        0.37176    0.12824    0.62824    1.000
    C28      C        0.42289    0.07711    0.57711    1.000
    C29      C        0.12824    0.37176    0.87176    1.000
    C30      C        0.07711    0.42289    0.92289    1.000
    C31      C        0.37176    0.12824    0.87176    1.000
    C32      C        0.42289    0.07711    0.92289    1.000
    C33      C        0.12824    0.37176    0.62824    1.000
    C34      C        0.07711    0.42289    0.57711    1.000
    C35      C        0.00000    0.00000    0.46688    1.000
    C36      C        0.53312    0.46688    0.00000    1.000
    C37      C        0.53312    0.00000    0.53312    1.000
    C38      C        0.00000    0.46688    0.00000    1.000
    C39      C        0.46688    0.00000    0.00000    1.000
    C40      C        0.00000    0.46688    0.46688    1.000
    O41      O        0.25000    0.25000    0.75000    1.000
    O42      O        0.14684    0.14684    0.70284    1.000
    O43      O        0.29716    0.40916    0.85316    1.000
    O44      O        0.14684    0.14684    0.59084    1.000
    O45      O        0.40916    0.29716    0.85316    1.000
    O46      O        0.29716    0.14684    0.59084    1.000
    O47      O        0.14684    0.40916    0.85316    1.000
    O48      O        0.40916    0.14684    0.70284    1.000
    O49      O        0.14684    0.29716    0.85316    1.000
    O50      O        0.40916    0.14684    0.85316    1.000
    O51      O        0.14684    0.40916    0.70284    1.000
    O52      O        0.29716    0.14684    0.85316    1.000
    O53      O        0.14684    0.29716    0.59084    1.000
    Zn54     Zn       0.78839    0.78840    0.21161    1.000
    Zn55     Zn       0.78839    0.63483    0.21161    1.000
    Zn56     Zn       0.78839    0.78840    0.36518    1.000
    Zn57     Zn       0.63482    0.78840    0.21161    1.000
    H58      H        0.46260    0.65140    0.05700    1.000
    H59      H        0.94300    0.94300    0.34860    1.000
    H60      H        0.65140    0.94300    0.53740    1.000
    H61      H        0.94300    0.46260    0.05700    1.000
    H62      H        0.46260    0.94300    0.05700    1.000
    H63      H        0.94300    0.46260    0.34860    1.000
    S64      S        0.95260    0.95260    0.50400    1.000
    C65      C        0.49600    0.59880    0.04740    1.000
    C66      C        0.95260    0.95260    0.40120    1.000
    S67      S        0.59880    0.49600    0.04740    1.000
    S68      S        0.49600    0.95260    0.40120    1.000
    S69      S        0.95260    0.59880    0.04740    1.000
    C70      C        0.59880    0.95260    0.50400    1.000
    C71      C        0.95260    0.49600    0.04740    1.000
    S72      S        0.59880    0.95260    0.04740    1.000
    S73      S        0.95260    0.59880    0.50400    1.000
    C74      C        0.49600    0.95260    0.04740    1.000
    C75      C        0.95260    0.49600    0.40120    1.000
    C76      C        0.87176    0.87176    0.37176    1.000
    C77      C        0.92289    0.92289    0.42289    1.000
    C78      C        0.62824    0.62824    0.12824    1.000
    C79      C        0.57711    0.57711    0.07711    1.000
    C80      C        0.62824    0.87176    0.37176    1.000
    C81      C        0.57711    0.92289    0.42289    1.000
    C82      C        0.87176    0.62824    0.12824    1.000
    C83      C        0.92289    0.57711    0.07711    1.000
    C84      C        0.62824    0.87176    0.12824    1.000
    C85      C        0.57711    0.92289    0.07711    1.000
    C86      C        0.87176    0.62824    0.37176    1.000
    C87      C        0.92289    0.57711    0.42289    1.000
    C88      C        0.00000    0.00000    0.53312    1.000
    C89      C        0.46688    0.53312    0.00000    1.000
    C90      C        0.46688    0.00000    0.46688    1.000
    C91      C        0.00000    0.53312    0.00000    1.000
    C92      C        0.53312    0.00000    0.00000    1.000
    C93      C        0.00000    0.53312    0.53312    1.000
    O94      O        0.75000    0.75000    0.25000    1.000
    O95      O        0.85316    0.85316    0.29716    1.000
    O96      O        0.70284    0.59084    0.14684    1.000
    O97      O        0.85316    0.85316    0.40916    1.000
    O98      O        0.59084    0.70284    0.14684    1.000
    O99      O        0.70284    0.85316    0.40916    1.000
    O100     O        0.85316    0.59084    0.14684    1.000
    O101     O        0.59084    0.85316    0.29716    1.000
    O102     O        0.85316    0.70284    0.14684    1.000
    O103     O        0.59084    0.85316    0.14684    1.000
    O104     O        0.85316    0.59084    0.29716    1.000
    O105     O        0.70284    0.85316    0.14684    1.000
    O106     O        0.85316    0.70284    0.40916    1.000
