# CIF file generated by openbabel 3.1.0, see https://openbabel.org
data_I
_chemical_name_common 'OTATOT_clean'
_cell_length_a 10.0389
_cell_length_b 17.7423
_cell_length_c 19.7457
_cell_angle_alpha 90
_cell_angle_beta 90
_cell_angle_gamma 90
_space_group_name_H-M_alt 'P 1'
_space_group_name_Hall 'P 1'
loop_
    _symmetry_equiv_pos_as_xyz
    x,y,z
loop_
    _atom_site_label
    _atom_site_type_symbol
    _atom_site_fract_x
    _atom_site_fract_y
    _atom_site_fract_z
    _atom_site_occupancy
    Tb1      Tb       0.03138    0.75000    0.25000    1.000
    Tb2      Tb       0.46862    0.25000    0.75000    1.000
    Tb3      Tb       0.96862    0.25000    0.75000    1.000
    Tb4      Tb       0.53138    0.75000    0.25000    1.000
    H1       H        0.12420    0.86320    0.45870    1.000
    H2       H        0.17080    0.88540    0.57190    1.000
    H3       H        0.47220    0.75390    0.44160    1.000
    H4       H        0.51320    0.77410    0.55510    1.000
    H5       H        0.36370    0.84030    0.61970    1.000
    H6       H        0.94840    0.56230    0.31450    1.000
    H7       H        0.19430    0.56160    0.50940    1.000
    H8       H        0.26260    0.62950    0.41730    1.000
    H9       H        0.87400    0.49540    0.40670    1.000
    H10      H        0.12420    0.63680    0.04130    1.000
    H11      H        0.17080    0.61460    0.92810    1.000
    H12      H        0.47220    0.74610    0.05840    1.000
    H13      H        0.51320    0.72590    0.94490    1.000
    H14      H        0.36370    0.65970    0.88030    1.000
    H15      H        0.94840    0.93770    0.18550    1.000
    H16      H        0.19430    0.93840    0.99060    1.000
    H17      H        0.26260    0.87050    0.08270    1.000
    H18      H        0.87400    0.00460    0.09330    1.000
    H19      H        0.37580    0.13680    0.95870    1.000
    H20      H        0.32920    0.11460    0.07190    1.000
    H21      H        0.02780    0.24610    0.94160    1.000
    H22      H        0.98680    0.22590    0.05510    1.000
    H23      H        0.13630    0.15970    0.11970    1.000
    H24      H        0.55160    0.43770    0.81450    1.000
    H25      H        0.30570    0.43840    0.00940    1.000
    H26      H        0.23740    0.37050    0.91730    1.000
    H27      H        0.62600    0.50460    0.90670    1.000
    H28      H        0.37580    0.36320    0.54130    1.000
    H29      H        0.32920    0.38540    0.42810    1.000
    H30      H        0.02780    0.25390    0.55840    1.000
    H31      H        0.98680    0.27410    0.44490    1.000
    H32      H        0.13630    0.34030    0.38030    1.000
    H33      H        0.55160    0.06230    0.68550    1.000
    H34      H        0.30570    0.06160    0.49060    1.000
    H35      H        0.23740    0.12950    0.58270    1.000
    H36      H        0.62600    0.99540    0.59330    1.000
    H37      H        0.87580    0.13680    0.54130    1.000
    H38      H        0.82920    0.11460    0.42810    1.000
    H39      H        0.52780    0.24610    0.55840    1.000
    H40      H        0.48680    0.22590    0.44490    1.000
    H41      H        0.63630    0.15970    0.38030    1.000
    H42      H        0.05160    0.43770    0.68550    1.000
    H43      H        0.80570    0.43840    0.49060    1.000
    H44      H        0.73740    0.37050    0.58270    1.000
    H45      H        0.12600    0.50460    0.59330    1.000
    H46      H        0.87580    0.36320    0.95870    1.000
    H47      H        0.82920    0.38540    0.07190    1.000
    H48      H        0.52780    0.25390    0.94160    1.000
    H49      H        0.48680    0.27410    0.05510    1.000
    H50      H        0.63630    0.34030    0.11970    1.000
    H51      H        0.05160    0.06230    0.81450    1.000
    H52      H        0.80570    0.06160    0.00940    1.000
    H53      H        0.73740    0.12950    0.91730    1.000
    H54      H        0.12600    0.99540    0.90670    1.000
    H55      H        0.62420    0.86320    0.04130    1.000
    H56      H        0.67080    0.88540    0.92810    1.000
    H57      H        0.97220    0.75390    0.05840    1.000
    H58      H        0.01320    0.77410    0.94490    1.000
    H59      H        0.86370    0.84030    0.88030    1.000
    H60      H        0.44840    0.56230    0.18550    1.000
    H61      H        0.69430    0.56160    0.99060    1.000
    H62      H        0.76260    0.62950    0.08270    1.000
    H63      H        0.37400    0.49540    0.09330    1.000
    H64      H        0.62420    0.63680    0.45870    1.000
    H65      H        0.67080    0.61460    0.57190    1.000
    H66      H        0.97220    0.74610    0.44160    1.000
    H67      H        0.01320    0.72590    0.55510    1.000
    H68      H        0.86370    0.65970    0.61970    1.000
    H69      H        0.44840    0.93770    0.31450    1.000
    H70      H        0.69430    0.93840    0.50940    1.000
    H71      H        0.76260    0.87050    0.41730    1.000
    H72      H        0.37400    0.00460    0.40670    1.000
    C1       C        0.27200    0.79550    0.36341    1.000
    C2       C        0.29520    0.80712    0.43804    1.000
    C3       C        0.20340    0.84591    0.47759    1.000
    C4       C        0.23100    0.85855    0.54547    1.000
    C5       C        0.41080    0.78033    0.46765    1.000
    C6       C        0.43560    0.79257    0.53558    1.000
    C7       C        0.34630    0.83176    0.57407    1.000
    C8       C        0.99670    0.56318    0.35472    1.000
    C9       C        0.14180    0.56198    0.47062    1.000
    C10      C        0.02420    0.52136    0.47010    1.000
    C11      C        0.18300    0.60273    0.41548    1.000
    C12      C        0.95290    0.52255    0.40990    1.000
    C13      C        0.27200    0.70450    0.13659    1.000
    C14      C        0.29520    0.69288    0.06196    1.000
    C15      C        0.20340    0.65409    0.02241    1.000
    C16      C        0.23100    0.64145    0.95453    1.000
    C17      C        0.41080    0.71967    0.03235    1.000
    C18      C        0.43560    0.70743    0.96442    1.000
    C19      C        0.34630    0.66824    0.92593    1.000
    C20      C        0.99670    0.93682    0.14528    1.000
    C21      C        0.14180    0.93802    0.02938    1.000
    C22      C        0.02420    0.97864    0.02990    1.000
    C23      C        0.18300    0.89727    0.08452    1.000
    C24      C        0.95290    0.97745    0.09010    1.000
    C25      C        0.22800    0.20450    0.86341    1.000
    C26      C        0.20480    0.19288    0.93804    1.000
    C27      C        0.29660    0.15409    0.97759    1.000
    C28      C        0.26900    0.14145    0.04547    1.000
    C29      C        0.08920    0.21967    0.96765    1.000
    C30      C        0.06440    0.20743    0.03558    1.000
    C31      C        0.15370    0.16824    0.07407    1.000
    C32      C        0.50330    0.43682    0.85472    1.000
    C33      C        0.35820    0.43802    0.97062    1.000
    C34      C        0.47580    0.47864    0.97010    1.000
    C35      C        0.31700    0.39727    0.91548    1.000
    C36      C        0.54710    0.47745    0.90990    1.000
    C37      C        0.22800    0.29550    0.63659    1.000
    C38      C        0.20480    0.30712    0.56196    1.000
    C39      C        0.29660    0.34591    0.52241    1.000
    C40      C        0.26900    0.35855    0.45453    1.000
    C41      C        0.08920    0.28033    0.53235    1.000
    C42      C        0.06440    0.29257    0.46442    1.000
    C43      C        0.15370    0.33176    0.42593    1.000
    C44      C        0.50330    0.06318    0.64528    1.000
    C45      C        0.35820    0.06198    0.52938    1.000
    C46      C        0.47580    0.02136    0.52990    1.000
    C47      C        0.31700    0.10273    0.58452    1.000
    C48      C        0.54710    0.02255    0.59010    1.000
    C49      C        0.72800    0.20450    0.63659    1.000
    C50      C        0.70480    0.19288    0.56196    1.000
    C51      C        0.79660    0.15409    0.52241    1.000
    C52      C        0.76900    0.14145    0.45453    1.000
    C53      C        0.58920    0.21967    0.53235    1.000
    C54      C        0.56440    0.20743    0.46442    1.000
    C55      C        0.65370    0.16824    0.42593    1.000
    C56      C        0.00330    0.43682    0.64528    1.000
    C57      C        0.85820    0.43802    0.52938    1.000
    C58      C        0.97580    0.47864    0.52990    1.000
    C59      C        0.81700    0.39727    0.58452    1.000
    C60      C        0.04710    0.47745    0.59010    1.000
    C61      C        0.72800    0.29550    0.86341    1.000
    C62      C        0.70480    0.30712    0.93804    1.000
    C63      C        0.79660    0.34591    0.97759    1.000
    C64      C        0.76900    0.35855    0.04547    1.000
    C65      C        0.58920    0.28033    0.96765    1.000
    C66      C        0.56440    0.29257    0.03558    1.000
    C67      C        0.65370    0.33176    0.07407    1.000
    C68      C        0.00330    0.06318    0.85472    1.000
    C69      C        0.85820    0.06198    0.97062    1.000
    C70      C        0.97580    0.02136    0.97010    1.000
    C71      C        0.81700    0.10273    0.91548    1.000
    C72      C        0.04710    0.02255    0.90990    1.000
    C73      C        0.77200    0.79550    0.13659    1.000
    C74      C        0.79520    0.80712    0.06196    1.000
    C75      C        0.70340    0.84591    0.02241    1.000
    C76      C        0.73100    0.85855    0.95453    1.000
    C77      C        0.91080    0.78033    0.03235    1.000
    C78      C        0.93560    0.79257    0.96442    1.000
    C79      C        0.84630    0.83176    0.92593    1.000
    C80      C        0.49670    0.56318    0.14528    1.000
    C81      C        0.64180    0.56198    0.02938    1.000
    C82      C        0.52420    0.52136    0.02990    1.000
    C83      C        0.68300    0.60273    0.08452    1.000
    C84      C        0.45290    0.52255    0.09010    1.000
    C85      C        0.77200    0.70450    0.36341    1.000
    C86      C        0.79520    0.69288    0.43804    1.000
    C87      C        0.70340    0.65409    0.47759    1.000
    C88      C        0.73100    0.64145    0.54547    1.000
    C89      C        0.91080    0.71967    0.46765    1.000
    C90      C        0.93560    0.70743    0.53558    1.000
    C91      C        0.84630    0.66824    0.57407    1.000
    C92      C        0.49670    0.93682    0.35472    1.000
    C93      C        0.64180    0.93802    0.47062    1.000
    C94      C        0.52420    0.97864    0.47010    1.000
    C95      C        0.68300    0.89727    0.41548    1.000
    C96      C        0.45290    0.97745    0.40990    1.000
    N1       N        0.10885    0.60402    0.35889    1.000
    N2       N        0.10885    0.89598    0.14111    1.000
    N3       N        0.39115    0.39598    0.85889    1.000
    N4       N        0.39115    0.10402    0.64111    1.000
    N5       N        0.89115    0.39598    0.64111    1.000
    N6       N        0.89115    0.10402    0.85889    1.000
    N7       N        0.60885    0.60402    0.14111    1.000
    N8       N        0.60885    0.89598    0.35889    1.000
    O1       O        0.37315    0.78027    0.32859    1.000
    O2       O        0.15641    0.80171    0.34010    1.000
    O3       O        0.14915    0.64460    0.30523    1.000
    O4       O        0.37315    0.71973    0.17141    1.000
    O5       O        0.15641    0.69829    0.15990    1.000
    O6       O        0.14915    0.85540    0.19477    1.000
    O7       O        0.12685    0.21973    0.82859    1.000
    O8       O        0.34359    0.19829    0.84010    1.000
    O9       O        0.35085    0.35540    0.80523    1.000
    O10      O        0.12685    0.28027    0.67141    1.000
    O11      O        0.34359    0.30171    0.65990    1.000
    O12      O        0.35085    0.14460    0.69477    1.000
    O13      O        0.62685    0.21973    0.67141    1.000
    O14      O        0.84359    0.19829    0.65990    1.000
    O15      O        0.85085    0.35540    0.69477    1.000
    O16      O        0.62685    0.28027    0.82859    1.000
    O17      O        0.84359    0.30171    0.84010    1.000
    O18      O        0.85085    0.14460    0.80523    1.000
    O19      O        0.87315    0.78027    0.17141    1.000
    O20      O        0.65641    0.80171    0.15990    1.000
    O21      O        0.64915    0.64460    0.19477    1.000
    O22      O        0.87315    0.71973    0.32859    1.000
    O23      O        0.65641    0.69829    0.34010    1.000
    O24      O        0.64915    0.85540    0.30523    1.000
