# CIF file generated by openbabel 3.1.0, see https://openbabel.org
data_I
_chemical_name_common 'image0'
_cell_length_a 33.232
_cell_length_b 10.346
_cell_length_c 27.852
_cell_angle_alpha 90
_cell_angle_beta 106.872
_cell_angle_gamma 90
_space_group_name_H-M_alt 'P 1'
_space_group_name_Hall 'P 1'
loop_
    _symmetry_equiv_pos_as_xyz
    x,y,z
loop_
    _atom_site_label
    _atom_site_type_symbol
    _atom_site_fract_x
    _atom_site_fract_y
    _atom_site_fract_z
    _atom_site_occupancy
    Eu1      Eu       0.55547    0.10532    0.00907    1.000
    O1       O        0.12080    0.64500    0.07810    1.000
    O2       O        0.12590    0.49280    0.02650    1.000
    O3       O        0.44300    0.94530    0.43020    1.000
    O4       O        0.49635    0.80420    0.44840    1.000
    O5       O        0.47590    0.07710    0.03630    1.000
    O6       O        0.52580    0.22230    0.06520    1.000
    C1       C        0.14110    0.56170    0.06350    1.000
    C2       C        0.18621    0.53890    0.09410    1.000
    C3       C        0.20720    0.63840    0.12490    1.000
    H1       H        0.19280    0.71320    0.12840    1.000
    C4       C        0.24970    0.62630    0.15030    1.000
    H2       H        0.26370    0.69290    0.17080    1.000
    C5       C        0.27124    0.51460    0.14490    1.000
    C6       C        0.25030    0.41510    0.11420    1.000
    H3       H        0.26470    0.34030    0.11060    1.000
    C7       C        0.20780    0.42720    0.08880    1.000
    H4       H        0.19370    0.36060    0.06830    1.000
    C8       C        0.31850    0.51120    0.17000    1.000
    C9       C        0.33780    0.57340    0.21550    1.000
    H5       H        0.32150    0.62290    0.23070    1.000
    C10      C        0.38130    0.56250    0.23880    1.000
    C11      C        0.40530    0.50070    0.21370    1.000
    H6       H        0.43440    0.50120    0.22770    1.000
    C12      C        0.38850    0.43620    0.16760    1.000
    C13      C        0.34410    0.44100    0.14670    1.000
    H7       H        0.33170    0.39690    0.11700    1.000
    C14      C        0.40080    0.63690    0.28630    1.000
    C15      C        0.38220    0.74160    0.29910    1.000
    H8       H        0.35650    0.76920    0.27800    1.000
    C16      C        0.40090    0.81120    0.34390    1.000
    H9       H        0.38730    0.88250    0.35240    1.000
    C17      C        0.43950    0.77180    0.37490    1.000
    C18      C        0.45840    0.66530    0.36180    1.000
    H10      H        0.48460    0.63920    0.38220    1.000
    C19      C        0.43900    0.59520    0.31820    1.000
    H11      H        0.45160    0.52070    0.31060    1.000
    C20      C        0.46180    0.84660    0.42150    1.000
    C21      C        0.41510    0.36680    0.14200    1.000
    C22      C        0.45420    0.41150    0.14380    1.000
    H12      H        0.46430    0.48610    0.16190    1.000
    C23      C        0.47850    0.34850    0.11950    1.000
    H13      H        0.50520    0.38020    0.12180    1.000
    C24      C        0.46430    0.23780    0.09120    1.000
    C25      C        0.42530    0.19330    0.09000    1.000
    H14      H        0.41520    0.11850    0.07210    1.000
    C26      C        0.40020    0.25850    0.11520    1.000
    H15      H        0.37360    0.22750    0.11350    1.000
    C27      C        0.49130    0.17460    0.06300    1.000
    O7       O        0.57550    0.33000    0.00410    1.000
    S1       S        0.57180    0.44680    0.03440    1.000
    C28      C        0.60420    0.57600    0.02500    1.000
    H16      H        0.63320    0.55200    0.03850    1.000
    H17      H        0.59860    0.65170    0.04180    1.000
    H18      H        0.59820    0.59280    0.98980    1.000
    S2       S        0.61290    0.40730    0.03120    1.000
    C29      C        0.61570    0.46000    0.09260    1.000
    H19      H        0.61980    0.38650    0.11470    1.000
    H20      H        0.59000    0.50280    0.09220    1.000
    H21      H        0.63890    0.51850    0.10430    1.000
    C30      C        0.60000    0.54400    0.99130    1.000
    H22      H        0.59830    0.51860    0.95760    1.000
    H23      H        0.62130    0.60870    0.00250    1.000
    H24      H        0.57340    0.57780    0.99220    1.000
    C31      C        0.51910    0.49700    0.00620    1.000
    H25      H        0.52830    0.42120    0.02610    1.000
    H26      H        0.53050    0.57250    0.02560    1.000
    H27      H        0.52860    0.49410    0.97690    1.000
    Eu2      Eu       0.05547    0.60532    0.00907    1.000
    O8       O        0.62080    0.14500    0.07810    1.000
    O9       O        0.62590    0.99280    0.02650    1.000
    O10      O        0.94300    0.44530    0.43020    1.000
    O11      O        0.99635    0.30420    0.44840    1.000
    O12      O        0.97590    0.57710    0.03630    1.000
    O13      O        0.02580    0.72230    0.06520    1.000
    C32      C        0.64110    0.06170    0.06350    1.000
    C33      C        0.68621    0.03890    0.09410    1.000
    C34      C        0.70720    0.13840    0.12490    1.000
    H28      H        0.69280    0.21320    0.12840    1.000
    C35      C        0.74970    0.12630    0.15030    1.000
    H29      H        0.76370    0.19290    0.17080    1.000
    C36      C        0.77124    0.01460    0.14490    1.000
    C37      C        0.75030    0.91510    0.11420    1.000
    H30      H        0.76470    0.84030    0.11060    1.000
    C38      C        0.70780    0.92720    0.08880    1.000
    H31      H        0.69370    0.86060    0.06830    1.000
    C39      C        0.81850    0.01120    0.17000    1.000
    C40      C        0.83780    0.07340    0.21550    1.000
    H32      H        0.82150    0.12290    0.23070    1.000
    C41      C        0.88130    0.06250    0.23880    1.000
    C42      C        0.90530    0.00070    0.21370    1.000
    H33      H        0.93440    0.00120    0.22770    1.000
    C43      C        0.88850    0.93620    0.16760    1.000
    C44      C        0.84410    0.94100    0.14670    1.000
    H34      H        0.83170    0.89690    0.11700    1.000
    C45      C        0.90080    0.13690    0.28630    1.000
    C46      C        0.88220    0.24160    0.29910    1.000
    H35      H        0.85650    0.26920    0.27800    1.000
    C47      C        0.90090    0.31120    0.34390    1.000
    H36      H        0.88730    0.38250    0.35240    1.000
    C48      C        0.93950    0.27180    0.37490    1.000
    C49      C        0.95840    0.16530    0.36180    1.000
    H37      H        0.98460    0.13920    0.38220    1.000
    C50      C        0.93900    0.09520    0.31820    1.000
    H38      H        0.95160    0.02070    0.31060    1.000
    C51      C        0.96180    0.34660    0.42150    1.000
    C52      C        0.91510    0.86680    0.14200    1.000
    C53      C        0.95420    0.91150    0.14380    1.000
    H39      H        0.96430    0.98610    0.16190    1.000
    C54      C        0.97850    0.84850    0.11950    1.000
    H40      H        0.00520    0.88020    0.12180    1.000
    C55      C        0.96430    0.73780    0.09120    1.000
    C56      C        0.92530    0.69330    0.09000    1.000
    H41      H        0.91520    0.61850    0.07210    1.000
    C57      C        0.90020    0.75850    0.11520    1.000
    H42      H        0.87360    0.72750    0.11350    1.000
    C58      C        0.99130    0.67460    0.06300    1.000
    O14      O        0.07550    0.83000    0.00410    1.000
    S3       S        0.07180    0.94680    0.03440    1.000
    C59      C        0.10420    0.07600    0.02500    1.000
    H43      H        0.13320    0.05200    0.03850    1.000
    H44      H        0.09860    0.15170    0.04180    1.000
    H45      H        0.09820    0.09280    0.98980    1.000
    S4       S        0.11290    0.90730    0.03120    1.000
    C60      C        0.11570    0.96000    0.09260    1.000
    H46      H        0.11980    0.88650    0.11470    1.000
    H47      H        0.09000    0.00280    0.09220    1.000
    H48      H        0.13890    0.01850    0.10430    1.000
    C61      C        0.10000    0.04400    0.99130    1.000
    H49      H        0.09830    0.01860    0.95760    1.000
    H50      H        0.12130    0.10870    0.00250    1.000
    H51      H        0.07340    0.07780    0.99220    1.000
    C62      C        0.01910    0.99700    0.00620    1.000
    H52      H        0.02830    0.92120    0.02610    1.000
    H53      H        0.03050    0.07250    0.02560    1.000
    H54      H        0.02860    0.99410    0.97690    1.000
    Eu3      Eu       0.44453    0.10532    0.49093    1.000
    O15      O        0.87920    0.64500    0.42190    1.000
    O16      O        0.87410    0.49280    0.47350    1.000
    O17      O        0.55700    0.94530    0.06980    1.000
    O18      O        0.50365    0.80420    0.05160    1.000
    O19      O        0.52410    0.07710    0.46370    1.000
    O20      O        0.47420    0.22230    0.43480    1.000
    C63      C        0.85890    0.56170    0.43650    1.000
    C64      C        0.81379    0.53890    0.40590    1.000
    C65      C        0.79280    0.63840    0.37510    1.000
    H55      H        0.80720    0.71320    0.37160    1.000
    C66      C        0.75030    0.62630    0.34970    1.000
    H56      H        0.73630    0.69290    0.32920    1.000
    C67      C        0.72876    0.51460    0.35510    1.000
    C68      C        0.74970    0.41510    0.38580    1.000
    H57      H        0.73530    0.34030    0.38940    1.000
    C69      C        0.79220    0.42720    0.41120    1.000
    H58      H        0.80630    0.36060    0.43170    1.000
    C70      C        0.68150    0.51120    0.33000    1.000
    C71      C        0.66220    0.57340    0.28450    1.000
    H59      H        0.67850    0.62290    0.26930    1.000
    C72      C        0.61870    0.56250    0.26120    1.000
    C73      C        0.59470    0.50070    0.28630    1.000
    H60      H        0.56560    0.50120    0.27230    1.000
    C74      C        0.61150    0.43620    0.33240    1.000
    C75      C        0.65590    0.44100    0.35330    1.000
    H61      H        0.66830    0.39690    0.38300    1.000
    C76      C        0.59920    0.63690    0.21370    1.000
    C77      C        0.61780    0.74160    0.20090    1.000
    H62      H        0.64350    0.76920    0.22200    1.000
    C78      C        0.59910    0.81120    0.15610    1.000
    H63      H        0.61270    0.88250    0.14760    1.000
    C79      C        0.56050    0.77180    0.12510    1.000
    C80      C        0.54160    0.66530    0.13820    1.000
    H64      H        0.51540    0.63920    0.11780    1.000
    C81      C        0.56100    0.59520    0.18180    1.000
    H65      H        0.54840    0.52070    0.18940    1.000
    C82      C        0.53820    0.84660    0.07850    1.000
    C83      C        0.58490    0.36680    0.35800    1.000
    C84      C        0.54580    0.41150    0.35620    1.000
    H66      H        0.53570    0.48610    0.33810    1.000
    C85      C        0.52150    0.34850    0.38050    1.000
    H67      H        0.49480    0.38020    0.37820    1.000
    C86      C        0.53570    0.23780    0.40880    1.000
    C87      C        0.57470    0.19330    0.41000    1.000
    H68      H        0.58480    0.11850    0.42790    1.000
    C88      C        0.59980    0.25850    0.38480    1.000
    H69      H        0.62640    0.22750    0.38650    1.000
    C89      C        0.50870    0.17460    0.43700    1.000
    O21      O        0.42450    0.33000    0.49590    1.000
    S5       S        0.42820    0.44680    0.46560    1.000
    C90      C        0.39580    0.57600    0.47500    1.000
    H70      H        0.36680    0.55200    0.46150    1.000
    H71      H        0.40140    0.65170    0.45820    1.000
    H72      H        0.40180    0.59280    0.51020    1.000
    S6       S        0.38710    0.40730    0.46880    1.000
    C91      C        0.38430    0.46000    0.40740    1.000
    H73      H        0.38020    0.38650    0.38530    1.000
    H74      H        0.41000    0.50280    0.40780    1.000
    H75      H        0.36110    0.51850    0.39570    1.000
    C92      C        0.40000    0.54400    0.50870    1.000
    H76      H        0.40170    0.51860    0.54240    1.000
    H77      H        0.37870    0.60870    0.49750    1.000
    H78      H        0.42660    0.57780    0.50780    1.000
    C93      C        0.48090    0.49700    0.49380    1.000
    H79      H        0.47170    0.42120    0.47390    1.000
    H80      H        0.46950    0.57250    0.47440    1.000
    H81      H        0.47140    0.49410    0.52310    1.000
    Eu4      Eu       0.94453    0.60532    0.49093    1.000
    O22      O        0.37920    0.14500    0.42190    1.000
    O23      O        0.37410    0.99280    0.47350    1.000
    O24      O        0.05700    0.44530    0.06980    1.000
    O25      O        0.00365    0.30420    0.05160    1.000
    O26      O        0.02410    0.57710    0.46370    1.000
    O27      O        0.97420    0.72230    0.43480    1.000
    C94      C        0.35890    0.06170    0.43650    1.000
    C95      C        0.31379    0.03890    0.40590    1.000
    C96      C        0.29280    0.13840    0.37510    1.000
    H82      H        0.30720    0.21320    0.37160    1.000
    C97      C        0.25030    0.12630    0.34970    1.000
    H83      H        0.23630    0.19290    0.32920    1.000
    C98      C        0.22876    0.01460    0.35510    1.000
    C99      C        0.24970    0.91510    0.38580    1.000
    H84      H        0.23530    0.84030    0.38940    1.000
    C100     C        0.29220    0.92720    0.41120    1.000
    H85      H        0.30630    0.86060    0.43170    1.000
    C101     C        0.18150    0.01120    0.33000    1.000
    C102     C        0.16220    0.07340    0.28450    1.000
    H86      H        0.17850    0.12290    0.26930    1.000
    C103     C        0.11870    0.06250    0.26120    1.000
    C104     C        0.09470    0.00070    0.28630    1.000
    H87      H        0.06560    0.00120    0.27230    1.000
    C105     C        0.11150    0.93620    0.33240    1.000
    C106     C        0.15590    0.94100    0.35330    1.000
    H88      H        0.16830    0.89690    0.38300    1.000
    C107     C        0.09920    0.13690    0.21370    1.000
    C108     C        0.11780    0.24160    0.20090    1.000
    H89      H        0.14350    0.26920    0.22200    1.000
    C109     C        0.09910    0.31120    0.15610    1.000
    H90      H        0.11270    0.38250    0.14760    1.000
    C110     C        0.06050    0.27180    0.12510    1.000
    C111     C        0.04160    0.16530    0.13820    1.000
    H91      H        0.01540    0.13920    0.11780    1.000
    C112     C        0.06100    0.09520    0.18180    1.000
    H92      H        0.04840    0.02070    0.18940    1.000
    C113     C        0.03820    0.34660    0.07850    1.000
    C114     C        0.08490    0.86680    0.35800    1.000
    C115     C        0.04580    0.91150    0.35620    1.000
    H93      H        0.03570    0.98610    0.33810    1.000
    C116     C        0.02150    0.84850    0.38050    1.000
    H94      H        0.99480    0.88020    0.37820    1.000
    C117     C        0.03570    0.73780    0.40880    1.000
    C118     C        0.07470    0.69330    0.41000    1.000
    H95      H        0.08480    0.61850    0.42790    1.000
    C119     C        0.09980    0.75850    0.38480    1.000
    H96      H        0.12640    0.72750    0.38650    1.000
    C120     C        0.00870    0.67460    0.43700    1.000
    O28      O        0.92450    0.83000    0.49590    1.000
    S7       S        0.92820    0.94680    0.46560    1.000
    C121     C        0.89580    0.07600    0.47500    1.000
    H97      H        0.86680    0.05200    0.46150    1.000
    H98      H        0.90140    0.15170    0.45820    1.000
    H99      H        0.90180    0.09280    0.51020    1.000
    S8       S        0.88710    0.90730    0.46880    1.000
    C122     C        0.88430    0.96000    0.40740    1.000
    H100     H        0.88020    0.88650    0.38530    1.000
    H101     H        0.91000    0.00280    0.40780    1.000
    H102     H        0.86110    0.01850    0.39570    1.000
    C123     C        0.90000    0.04400    0.50870    1.000
    H103     H        0.90170    0.01860    0.54240    1.000
    H104     H        0.87870    0.10870    0.49750    1.000
    H105     H        0.92660    0.07780    0.50780    1.000
    C124     C        0.98090    0.99700    0.49380    1.000
    H106     H        0.97170    0.92120    0.47390    1.000
    H107     H        0.96950    0.07250    0.47440    1.000
    H108     H        0.97140    0.99410    0.52310    1.000
    Eu5      Eu       0.44453    0.89468    0.99093    1.000
    O29      O        0.87920    0.35500    0.92190    1.000
    O30      O        0.87410    0.50720    0.97350    1.000
    O31      O        0.55700    0.05470    0.56980    1.000
    O32      O        0.50365    0.19580    0.55160    1.000
    O33      O        0.52410    0.92290    0.96370    1.000
    O34      O        0.47420    0.77770    0.93480    1.000
    C125     C        0.85890    0.43830    0.93650    1.000
    C126     C        0.81379    0.46110    0.90590    1.000
    C127     C        0.79280    0.36160    0.87510    1.000
    H109     H        0.80720    0.28680    0.87160    1.000
    C128     C        0.75030    0.37370    0.84970    1.000
    H110     H        0.73630    0.30710    0.82920    1.000
    C129     C        0.72876    0.48540    0.85510    1.000
    C130     C        0.74970    0.58490    0.88580    1.000
    H111     H        0.73530    0.65970    0.88940    1.000
    C131     C        0.79220    0.57280    0.91120    1.000
    H112     H        0.80630    0.63940    0.93170    1.000
    C132     C        0.68150    0.48880    0.83000    1.000
    C133     C        0.66220    0.42660    0.78450    1.000
    H113     H        0.67850    0.37710    0.76930    1.000
    C134     C        0.61870    0.43750    0.76120    1.000
    C135     C        0.59470    0.49930    0.78630    1.000
    H114     H        0.56560    0.49880    0.77230    1.000
    C136     C        0.61150    0.56380    0.83240    1.000
    C137     C        0.65590    0.55900    0.85330    1.000
    H115     H        0.66830    0.60310    0.88300    1.000
    C138     C        0.59920    0.36310    0.71370    1.000
    C139     C        0.61780    0.25840    0.70090    1.000
    H116     H        0.64350    0.23080    0.72200    1.000
    C140     C        0.59910    0.18880    0.65610    1.000
    H117     H        0.61270    0.11750    0.64760    1.000
    C141     C        0.56050    0.22820    0.62510    1.000
    C142     C        0.54160    0.33470    0.63820    1.000
    H118     H        0.51540    0.36080    0.61780    1.000
    C143     C        0.56100    0.40480    0.68180    1.000
    H119     H        0.54840    0.47930    0.68940    1.000
    C144     C        0.53820    0.15340    0.57850    1.000
    C145     C        0.58490    0.63320    0.85800    1.000
    C146     C        0.54580    0.58850    0.85620    1.000
    H120     H        0.53570    0.51390    0.83810    1.000
    C147     C        0.52150    0.65150    0.88050    1.000
    H121     H        0.49480    0.61980    0.87820    1.000
    C148     C        0.53570    0.76220    0.90880    1.000
    C149     C        0.57470    0.80670    0.91000    1.000
    H122     H        0.58480    0.88150    0.92790    1.000
    C150     C        0.59980    0.74150    0.88480    1.000
    H123     H        0.62640    0.77250    0.88650    1.000
    C151     C        0.50870    0.82540    0.93700    1.000
    O35      O        0.42450    0.67000    0.99590    1.000
    S9       S        0.42820    0.55320    0.96560    1.000
    C152     C        0.39580    0.42400    0.97500    1.000
    H124     H        0.36680    0.44800    0.96150    1.000
    H125     H        0.40140    0.34830    0.95820    1.000
    H126     H        0.40180    0.40720    0.01020    1.000
    S10      S        0.38710    0.59270    0.96880    1.000
    C153     C        0.38430    0.54000    0.90740    1.000
    H127     H        0.38020    0.61350    0.88530    1.000
    H128     H        0.41000    0.49720    0.90780    1.000
    H129     H        0.36110    0.48150    0.89570    1.000
    C154     C        0.40000    0.45600    0.00870    1.000
    H130     H        0.40170    0.48140    0.04240    1.000
    H131     H        0.37870    0.39130    0.99750    1.000
    H132     H        0.42660    0.42220    0.00780    1.000
    C155     C        0.48090    0.50300    0.99380    1.000
    H133     H        0.47170    0.57880    0.97390    1.000
    H134     H        0.46950    0.42750    0.97440    1.000
    H135     H        0.47140    0.50590    0.02310    1.000
    Eu6      Eu       0.94453    0.39468    0.99093    1.000
    O36      O        0.37920    0.85500    0.92190    1.000
    O37      O        0.37410    0.00720    0.97350    1.000
    O38      O        0.05700    0.55470    0.56980    1.000
    O39      O        0.00365    0.69580    0.55160    1.000
    O40      O        0.02410    0.42290    0.96370    1.000
    O41      O        0.97420    0.27770    0.93480    1.000
    C156     C        0.35890    0.93830    0.93650    1.000
    C157     C        0.31379    0.96110    0.90590    1.000
    C158     C        0.29280    0.86160    0.87510    1.000
    H136     H        0.30720    0.78680    0.87160    1.000
    C159     C        0.25030    0.87370    0.84970    1.000
    H137     H        0.23630    0.80710    0.82920    1.000
    C160     C        0.22876    0.98540    0.85510    1.000
    C161     C        0.24970    0.08490    0.88580    1.000
    H138     H        0.23530    0.15970    0.88940    1.000
    C162     C        0.29220    0.07280    0.91120    1.000
    H139     H        0.30630    0.13940    0.93170    1.000
    C163     C        0.18150    0.98880    0.83000    1.000
    C164     C        0.16220    0.92660    0.78450    1.000
    H140     H        0.17850    0.87710    0.76930    1.000
    C165     C        0.11870    0.93750    0.76120    1.000
    C166     C        0.09470    0.99930    0.78630    1.000
    H141     H        0.06560    0.99880    0.77230    1.000
    C167     C        0.11150    0.06380    0.83240    1.000
    C168     C        0.15590    0.05900    0.85330    1.000
    H142     H        0.16830    0.10310    0.88300    1.000
    C169     C        0.09920    0.86310    0.71370    1.000
    C170     C        0.11780    0.75840    0.70090    1.000
    H143     H        0.14350    0.73080    0.72200    1.000
    C171     C        0.09910    0.68880    0.65610    1.000
    H144     H        0.11270    0.61750    0.64760    1.000
    C172     C        0.06050    0.72820    0.62510    1.000
    C173     C        0.04160    0.83470    0.63820    1.000
    H145     H        0.01540    0.86080    0.61780    1.000
    C174     C        0.06100    0.90480    0.68180    1.000
    H146     H        0.04840    0.97930    0.68940    1.000
    C175     C        0.03820    0.65340    0.57850    1.000
    C176     C        0.08490    0.13320    0.85800    1.000
    C177     C        0.04580    0.08850    0.85620    1.000
    H147     H        0.03570    0.01390    0.83810    1.000
    C178     C        0.02150    0.15150    0.88050    1.000
    H148     H        0.99480    0.11980    0.87820    1.000
    C179     C        0.03570    0.26220    0.90880    1.000
    C180     C        0.07470    0.30670    0.91000    1.000
    H149     H        0.08480    0.38150    0.92790    1.000
    C181     C        0.09980    0.24150    0.88480    1.000
    H150     H        0.12640    0.27250    0.88650    1.000
    C182     C        0.00870    0.32540    0.93700    1.000
    O42      O        0.92450    0.17000    0.99590    1.000
    S11      S        0.92820    0.05320    0.96560    1.000
    C183     C        0.89580    0.92400    0.97500    1.000
    H151     H        0.86680    0.94800    0.96150    1.000
    H152     H        0.90140    0.84830    0.95820    1.000
    H153     H        0.90180    0.90720    0.01020    1.000
    S12      S        0.88710    0.09270    0.96880    1.000
    C184     C        0.88430    0.04000    0.90740    1.000
    H154     H        0.88020    0.11350    0.88530    1.000
    H155     H        0.91000    0.99720    0.90780    1.000
    H156     H        0.86110    0.98150    0.89570    1.000
    C185     C        0.90000    0.95600    0.00870    1.000
    H157     H        0.90170    0.98140    0.04240    1.000
    H158     H        0.87870    0.89130    0.99750    1.000
    H159     H        0.92660    0.92220    0.00780    1.000
    C186     C        0.98090    0.00300    0.99380    1.000
    H160     H        0.97170    0.07880    0.97390    1.000
    H161     H        0.96950    0.92750    0.97440    1.000
    H162     H        0.97140    0.00590    0.02310    1.000
    Eu7      Eu       0.55547    0.89468    0.50907    1.000
    O43      O        0.12080    0.35500    0.57810    1.000
    O44      O        0.12590    0.50720    0.52650    1.000
    O45      O        0.44300    0.05470    0.93020    1.000
    O46      O        0.49635    0.19580    0.94840    1.000
    O47      O        0.47590    0.92290    0.53630    1.000
    O48      O        0.52580    0.77770    0.56520    1.000
    C187     C        0.14110    0.43830    0.56350    1.000
    C188     C        0.18621    0.46110    0.59410    1.000
    C189     C        0.20720    0.36160    0.62490    1.000
    H163     H        0.19280    0.28680    0.62840    1.000
    C190     C        0.24970    0.37370    0.65030    1.000
    H164     H        0.26370    0.30710    0.67080    1.000
    C191     C        0.27124    0.48540    0.64490    1.000
    C192     C        0.25030    0.58490    0.61420    1.000
    H165     H        0.26470    0.65970    0.61060    1.000
    C193     C        0.20780    0.57280    0.58880    1.000
    H166     H        0.19370    0.63940    0.56830    1.000
    C194     C        0.31850    0.48880    0.67000    1.000
    C195     C        0.33780    0.42660    0.71550    1.000
    H167     H        0.32150    0.37710    0.73070    1.000
    C196     C        0.38130    0.43750    0.73880    1.000
    C197     C        0.40530    0.49930    0.71370    1.000
    H168     H        0.43440    0.49880    0.72770    1.000
    C198     C        0.38850    0.56380    0.66760    1.000
    C199     C        0.34410    0.55900    0.64670    1.000
    H169     H        0.33170    0.60310    0.61700    1.000
    C200     C        0.40080    0.36310    0.78630    1.000
    C201     C        0.38220    0.25840    0.79910    1.000
    H170     H        0.35650    0.23080    0.77800    1.000
    C202     C        0.40090    0.18880    0.84390    1.000
    H171     H        0.38730    0.11750    0.85240    1.000
    C203     C        0.43950    0.22820    0.87490    1.000
    C204     C        0.45840    0.33470    0.86180    1.000
    H172     H        0.48460    0.36080    0.88220    1.000
    C205     C        0.43900    0.40480    0.81820    1.000
    H173     H        0.45160    0.47930    0.81060    1.000
    C206     C        0.46180    0.15340    0.92150    1.000
    C207     C        0.41510    0.63320    0.64200    1.000
    C208     C        0.45420    0.58850    0.64380    1.000
    H174     H        0.46430    0.51390    0.66190    1.000
    C209     C        0.47850    0.65150    0.61950    1.000
    H175     H        0.50520    0.61980    0.62180    1.000
    C210     C        0.46430    0.76220    0.59120    1.000
    C211     C        0.42530    0.80670    0.59000    1.000
    H176     H        0.41520    0.88150    0.57210    1.000
    C212     C        0.40020    0.74150    0.61520    1.000
    H177     H        0.37360    0.77250    0.61350    1.000
    C213     C        0.49130    0.82540    0.56300    1.000
    O49      O        0.57550    0.67000    0.50410    1.000
    S13      S        0.57180    0.55320    0.53440    1.000
    C214     C        0.60420    0.42400    0.52500    1.000
    H178     H        0.63320    0.44800    0.53850    1.000
    H179     H        0.59860    0.34830    0.54180    1.000
    H180     H        0.59820    0.40720    0.48980    1.000
    S14      S        0.61290    0.59270    0.53120    1.000
    C215     C        0.61570    0.54000    0.59260    1.000
    H181     H        0.61980    0.61350    0.61470    1.000
    H182     H        0.59000    0.49720    0.59220    1.000
    H183     H        0.63890    0.48150    0.60430    1.000
    C216     C        0.60000    0.45600    0.49130    1.000
    H184     H        0.59830    0.48140    0.45760    1.000
    H185     H        0.62130    0.39130    0.50250    1.000
    H186     H        0.57340    0.42220    0.49220    1.000
    C217     C        0.51910    0.50300    0.50620    1.000
    H187     H        0.52830    0.57880    0.52610    1.000
    H188     H        0.53050    0.42750    0.52560    1.000
    H189     H        0.52860    0.50590    0.47690    1.000
    Eu8      Eu       0.05547    0.39468    0.50907    1.000
    O50      O        0.62080    0.85500    0.57810    1.000
    O51      O        0.62590    0.00720    0.52650    1.000
    O52      O        0.94300    0.55470    0.93020    1.000
    O53      O        0.99635    0.69580    0.94840    1.000
    O54      O        0.97590    0.42290    0.53630    1.000
    O55      O        0.02580    0.27770    0.56520    1.000
    C218     C        0.64110    0.93830    0.56350    1.000
    C219     C        0.68621    0.96110    0.59410    1.000
    C220     C        0.70720    0.86160    0.62490    1.000
    H190     H        0.69280    0.78680    0.62840    1.000
    C221     C        0.74970    0.87370    0.65030    1.000
    H191     H        0.76370    0.80710    0.67080    1.000
    C222     C        0.77124    0.98540    0.64490    1.000
    C223     C        0.75030    0.08490    0.61420    1.000
    H192     H        0.76470    0.15970    0.61060    1.000
    C224     C        0.70780    0.07280    0.58880    1.000
    H193     H        0.69370    0.13940    0.56830    1.000
    C225     C        0.81850    0.98880    0.67000    1.000
    C226     C        0.83780    0.92660    0.71550    1.000
    H194     H        0.82150    0.87710    0.73070    1.000
    C227     C        0.88130    0.93750    0.73880    1.000
    C228     C        0.90530    0.99930    0.71370    1.000
    H195     H        0.93440    0.99880    0.72770    1.000
    C229     C        0.88850    0.06380    0.66760    1.000
    C230     C        0.84410    0.05900    0.64670    1.000
    H196     H        0.83170    0.10310    0.61700    1.000
    C231     C        0.90080    0.86310    0.78630    1.000
    C232     C        0.88220    0.75840    0.79910    1.000
    H197     H        0.85650    0.73080    0.77800    1.000
    C233     C        0.90090    0.68880    0.84390    1.000
    H198     H        0.88730    0.61750    0.85240    1.000
    C234     C        0.93950    0.72820    0.87490    1.000
    C235     C        0.95840    0.83470    0.86180    1.000
    H199     H        0.98460    0.86080    0.88220    1.000
    C236     C        0.93900    0.90480    0.81820    1.000
    H200     H        0.95160    0.97930    0.81060    1.000
    C237     C        0.96180    0.65340    0.92150    1.000
    C238     C        0.91510    0.13320    0.64200    1.000
    C239     C        0.95420    0.08850    0.64380    1.000
    H201     H        0.96430    0.01390    0.66190    1.000
    C240     C        0.97850    0.15150    0.61950    1.000
    H202     H        0.00520    0.11980    0.62180    1.000
    C241     C        0.96430    0.26220    0.59120    1.000
    C242     C        0.92530    0.30670    0.59000    1.000
    H203     H        0.91520    0.38150    0.57210    1.000
    C243     C        0.90020    0.24150    0.61520    1.000
    H204     H        0.87360    0.27250    0.61350    1.000
    C244     C        0.99130    0.32540    0.56300    1.000
    O56      O        0.07550    0.17000    0.50410    1.000
    S15      S        0.07180    0.05320    0.53440    1.000
    C245     C        0.10420    0.92400    0.52500    1.000
    H205     H        0.13320    0.94800    0.53850    1.000
    H206     H        0.09860    0.84830    0.54180    1.000
    H207     H        0.09820    0.90720    0.48980    1.000
    S16      S        0.11290    0.09270    0.53120    1.000
    C246     C        0.11570    0.04000    0.59260    1.000
    H208     H        0.11980    0.11350    0.61470    1.000
    H209     H        0.09000    0.99720    0.59220    1.000
    H210     H        0.13890    0.98150    0.60430    1.000
    C247     C        0.10000    0.95600    0.49130    1.000
    H211     H        0.09830    0.98140    0.45760    1.000
    H212     H        0.12130    0.89130    0.50250    1.000
    H213     H        0.07340    0.92220    0.49220    1.000
    C248     C        0.01910    0.00300    0.50620    1.000
    H214     H        0.02830    0.07880    0.52610    1.000
    H215     H        0.03050    0.92750    0.52560    1.000
    H216     H        0.02860    0.00590    0.47690    1.000
