# CIF file generated by openbabel 3.1.0, see https://openbabel.org
data_I
_chemical_name_common 'image0'
_cell_length_a 16.2717
_cell_length_b 12.6684
_cell_length_c 17.6021
_cell_angle_alpha 90
_cell_angle_beta 112.523
_cell_angle_gamma 90
_space_group_name_H-M_alt 'P 1'
_space_group_name_Hall 'P 1'
loop_
    _symmetry_equiv_pos_as_xyz
    x,y,z
loop_
    _atom_site_label
    _atom_site_type_symbol
    _atom_site_fract_x
    _atom_site_fract_y
    _atom_site_fract_z
    _atom_site_occupancy
    Cu1      Cu       0.52528    0.17199    0.45094    1.000
    Cu2      Cu       0.61366    0.10409    0.36708    1.000
    Cu3      Cu       0.08008    0.11289    0.44143    1.000
    N1       N        0.18722    0.09970    0.42550    1.000
    N2       N        0.42786    0.07895    0.39037    1.000
    N3       N        0.50737    0.01550    0.31539    1.000
    N4       N        0.49599    0.80520    0.12662    1.000
    N5       N        0.62327    0.31290    0.76267    1.000
    N6       N        0.63614    0.19378    0.54330    1.000
    N7       N        0.71772    0.14000    0.46713    1.000
    N8       N        0.96771    0.11930    0.44932    1.000
    C1       C        0.26650    0.11900    0.48540    1.000
    H1       H        0.26770    0.13880    0.53670    1.000
    C2       C        0.34598    0.11130    0.47570    1.000
    H2       H        0.39900    0.12590    0.51960    1.000
    C3       C        0.34728    0.08150    0.40006    1.000
    C4       C        0.26441    0.06140    0.33711    1.000
    H3       H        0.26100    0.04190    0.28510    1.000
    C5       C        0.18860    0.07060    0.35270    1.000
    H4       H        0.13450    0.05580    0.31010    1.000
    C6       C        0.43456    0.01970    0.33138    1.000
    H5       H        0.38590    0.97900    0.29970    1.000
    C7       C        0.56800    0.81280    0.19635    1.000
    H6       H        0.61610    0.76870    0.20330    1.000
    C8       C        0.57451    0.88290    0.25867    1.000
    H7       H        0.62650    0.88660    0.30560    1.000
    C9       C        0.50264    0.94770    0.25057    1.000
    C10      C        0.42806    0.94090    0.17683    1.000
    H8       H        0.37900    0.98410    0.16780    1.000
    C11      C        0.42790    0.86970    0.11785    1.000
    H9       H        0.37780    0.86620    0.06920    1.000
    C12      C        0.55639    0.31920    0.68995    1.000
    H10      H        0.50420    0.35170    0.68740    1.000
    C13      C        0.55963    0.28040    0.61776    1.000
    H11      H        0.51050    0.28780    0.56870    1.000
    C14      C        0.63553    0.23070    0.61806    1.000
    C15      C        0.70551    0.22040    0.69493    1.000
    H12      H        0.75780    0.18610    0.69980    1.000
    C16      C        0.69561    0.26210    0.76330    1.000
    H13      H        0.74280    0.25430    0.81370    1.000
    C17      C        0.71255    0.17740    0.53589    1.000
    H14      H        0.76500    0.19250    0.58040    1.000
    C18      C        0.90020    0.05910    0.40610    1.000
    H15      H        0.90850    0.01070    0.36990    1.000
    C19      C        0.81767    0.06350    0.41124    1.000
    H16      H        0.77240    0.01890    0.37890    1.000
    C20      C        0.80200    0.13450    0.46462    1.000
    C21      C        0.87270    0.19940    0.50910    1.000
    H17      H        0.86580    0.25070    0.54400    1.000
    C22      C        0.95370    0.18750    0.50140    1.000
    H18      H        0.00100    0.22920    0.53420    1.000
    Cu4      Cu       0.47472    0.67199    0.04906    1.000
    Cu5      Cu       0.38634    0.60409    0.13292    1.000
    Cu6      Cu       0.91992    0.61289    0.05857    1.000
    N9       N        0.81278    0.59970    0.07450    1.000
    N10      N        0.57214    0.57895    0.10963    1.000
    N11      N        0.49263    0.51550    0.18461    1.000
    N12      N        0.50401    0.30520    0.37338    1.000
    N13      N        0.37673    0.81290    0.73733    1.000
    N14      N        0.36386    0.69378    0.95670    1.000
    N15      N        0.28228    0.64000    0.03287    1.000
    N16      N        0.03229    0.61930    0.05068    1.000
    C23      C        0.73350    0.61900    0.01460    1.000
    H19      H        0.73230    0.63880    0.96330    1.000
    C24      C        0.65402    0.61130    0.02430    1.000
    H20      H        0.60100    0.62590    0.98040    1.000
    C25      C        0.65272    0.58150    0.09994    1.000
    C26      C        0.73559    0.56140    0.16289    1.000
    H21      H        0.73900    0.54190    0.21490    1.000
    C27      C        0.81140    0.57060    0.14730    1.000
    H22      H        0.86550    0.55580    0.18990    1.000
    C28      C        0.56544    0.51970    0.16862    1.000
    H23      H        0.61410    0.47900    0.20030    1.000
    C29      C        0.43200    0.31280    0.30365    1.000
    H24      H        0.38390    0.26870    0.29670    1.000
    C30      C        0.42549    0.38290    0.24133    1.000
    H25      H        0.37350    0.38660    0.19440    1.000
    C31      C        0.49736    0.44770    0.24943    1.000
    C32      C        0.57194    0.44090    0.32317    1.000
    H26      H        0.62100    0.48410    0.33220    1.000
    C33      C        0.57210    0.36970    0.38215    1.000
    H27      H        0.62220    0.36620    0.43080    1.000
    C34      C        0.44361    0.81920    0.81005    1.000
    H28      H        0.49580    0.85170    0.81260    1.000
    C35      C        0.44037    0.78040    0.88224    1.000
    H29      H        0.48950    0.78780    0.93130    1.000
    C36      C        0.36447    0.73070    0.88194    1.000
    C37      C        0.29449    0.72040    0.80507    1.000
    H30      H        0.24220    0.68610    0.80020    1.000
    C38      C        0.30439    0.76210    0.73670    1.000
    H31      H        0.25720    0.75430    0.68630    1.000
    C39      C        0.28745    0.67740    0.96411    1.000
    H32      H        0.23500    0.69250    0.91960    1.000
    C40      C        0.09980    0.55910    0.09390    1.000
    H33      H        0.09150    0.51070    0.13010    1.000
    C41      C        0.18233    0.56350    0.08876    1.000
    H34      H        0.22760    0.51890    0.12110    1.000
    C42      C        0.19800    0.63450    0.03538    1.000
    C43      C        0.12730    0.69940    0.99090    1.000
    H35      H        0.13420    0.75070    0.95600    1.000
    C44      C        0.04630    0.68750    0.99860    1.000
    H36      H        0.99900    0.72920    0.96580    1.000
    Cu7      Cu       0.47472    0.82801    0.54906    1.000
    Cu8      Cu       0.38634    0.89591    0.63292    1.000
    Cu9      Cu       0.91992    0.88711    0.55857    1.000
    N17      N        0.81278    0.90030    0.57450    1.000
    N18      N        0.57214    0.92105    0.60963    1.000
    N19      N        0.49263    0.98450    0.68461    1.000
    N20      N        0.50401    0.19480    0.87338    1.000
    N21      N        0.37673    0.68710    0.23733    1.000
    N22      N        0.36386    0.80622    0.45670    1.000
    N23      N        0.28228    0.86000    0.53287    1.000
    N24      N        0.03229    0.88070    0.55068    1.000
    C45      C        0.73350    0.88100    0.51460    1.000
    H37      H        0.73230    0.86120    0.46330    1.000
    C46      C        0.65402    0.88870    0.52430    1.000
    H38      H        0.60100    0.87410    0.48040    1.000
    C47      C        0.65272    0.91850    0.59994    1.000
    C48      C        0.73559    0.93860    0.66289    1.000
    H39      H        0.73900    0.95810    0.71490    1.000
    C49      C        0.81140    0.92940    0.64730    1.000
    H40      H        0.86550    0.94420    0.68990    1.000
    C50      C        0.56544    0.98030    0.66862    1.000
    H41      H        0.61410    0.02100    0.70030    1.000
    C51      C        0.43200    0.18720    0.80365    1.000
    H42      H        0.38390    0.23130    0.79670    1.000
    C52      C        0.42549    0.11710    0.74133    1.000
    H43      H        0.37350    0.11340    0.69440    1.000
    C53      C        0.49736    0.05230    0.74943    1.000
    C54      C        0.57194    0.05910    0.82317    1.000
    H44      H        0.62100    0.01590    0.83220    1.000
    C55      C        0.57210    0.13030    0.88215    1.000
    H45      H        0.62220    0.13380    0.93080    1.000
    C56      C        0.44361    0.68080    0.31005    1.000
    H46      H        0.49580    0.64830    0.31260    1.000
    C57      C        0.44037    0.71960    0.38224    1.000
    H47      H        0.48950    0.71220    0.43130    1.000
    C58      C        0.36447    0.76930    0.38194    1.000
    C59      C        0.29449    0.77960    0.30507    1.000
    H48      H        0.24220    0.81390    0.30020    1.000
    C60      C        0.30439    0.73790    0.23670    1.000
    H49      H        0.25720    0.74570    0.18630    1.000
    C61      C        0.28745    0.82260    0.46411    1.000
    H50      H        0.23500    0.80750    0.41960    1.000
    C62      C        0.09980    0.94090    0.59390    1.000
    H51      H        0.09150    0.98930    0.63010    1.000
    C63      C        0.18233    0.93650    0.58876    1.000
    H52      H        0.22760    0.98110    0.62110    1.000
    C64      C        0.19800    0.86550    0.53538    1.000
    C65      C        0.12730    0.80060    0.49090    1.000
    H53      H        0.13420    0.74930    0.45600    1.000
    C66      C        0.04630    0.81250    0.49860    1.000
    H54      H        0.99900    0.77080    0.46580    1.000
    Cu10     Cu       0.52528    0.32801    0.95094    1.000
    Cu11     Cu       0.61366    0.39591    0.86708    1.000
    Cu12     Cu       0.08008    0.38711    0.94143    1.000
    N25      N        0.18722    0.40030    0.92550    1.000
    N26      N        0.42786    0.42105    0.89037    1.000
    N27      N        0.50737    0.48450    0.81539    1.000
    N28      N        0.49599    0.69480    0.62662    1.000
    N29      N        0.62327    0.18710    0.26267    1.000
    N30      N        0.63614    0.30622    0.04330    1.000
    N31      N        0.71772    0.36000    0.96713    1.000
    N32      N        0.96771    0.38070    0.94932    1.000
    C67      C        0.26650    0.38100    0.98540    1.000
    H55      H        0.26770    0.36120    0.03670    1.000
    C68      C        0.34598    0.38870    0.97570    1.000
    H56      H        0.39900    0.37410    0.01960    1.000
    C69      C        0.34728    0.41850    0.90006    1.000
    C70      C        0.26441    0.43860    0.83711    1.000
    H57      H        0.26100    0.45810    0.78510    1.000
    C71      C        0.18860    0.42940    0.85270    1.000
    H58      H        0.13450    0.44420    0.81010    1.000
    C72      C        0.43456    0.48030    0.83138    1.000
    H59      H        0.38590    0.52100    0.79970    1.000
    C73      C        0.56800    0.68720    0.69635    1.000
    H60      H        0.61610    0.73130    0.70330    1.000
    C74      C        0.57451    0.61710    0.75867    1.000
    H61      H        0.62650    0.61340    0.80560    1.000
    C75      C        0.50264    0.55230    0.75057    1.000
    C76      C        0.42806    0.55910    0.67683    1.000
    H62      H        0.37900    0.51590    0.66780    1.000
    C77      C        0.42790    0.63030    0.61785    1.000
    H63      H        0.37780    0.63380    0.56920    1.000
    C78      C        0.55639    0.18080    0.18995    1.000
    H64      H        0.50420    0.14830    0.18740    1.000
    C79      C        0.55963    0.21960    0.11776    1.000
    H65      H        0.51050    0.21220    0.06870    1.000
    C80      C        0.63553    0.26930    0.11806    1.000
    C81      C        0.70551    0.27960    0.19493    1.000
    H66      H        0.75780    0.31390    0.19980    1.000
    C82      C        0.69561    0.23790    0.26330    1.000
    H67      H        0.74280    0.24570    0.31370    1.000
    C83      C        0.71255    0.32260    0.03589    1.000
    H68      H        0.76500    0.30750    0.08040    1.000
    C84      C        0.90020    0.44090    0.90610    1.000
    H69      H        0.90850    0.48930    0.86990    1.000
    C85      C        0.81767    0.43650    0.91124    1.000
    H70      H        0.77240    0.48110    0.87890    1.000
    C86      C        0.80200    0.36550    0.96462    1.000
    C87      C        0.87270    0.30060    0.00910    1.000
    H71      H        0.86580    0.24930    0.04400    1.000
    C88      C        0.95370    0.31250    0.00140    1.000
    H72      H        0.00100    0.27080    0.03420    1.000
