# CIF file generated by openbabel 3.1.0, see https://openbabel.org
data_I
_chemical_name_common 'VINHEH_charged'
_cell_length_a 14.1428
_cell_length_b 20.3826
_cell_length_c 21.129
_cell_angle_alpha 115.256
_cell_angle_beta 109.553
_cell_angle_gamma 90
_space_group_name_H-M_alt 'P 1'
_space_group_name_Hall 'P 1'
loop_
    _symmetry_equiv_pos_as_xyz
    x,y,z
loop_
    _atom_site_label
    _atom_site_type_symbol
    _atom_site_fract_x
    _atom_site_fract_y
    _atom_site_fract_z
    _atom_site_occupancy
    Mn1      Mn       0.97212    0.67819    0.59646    1.000
    Mn2      Mn       0.19365    0.85004    0.31846    1.000
    Mn3      Mn       0.37566    0.32181    0.40354    1.000
    Mn4      Mn       0.87519    0.14996    0.68154    1.000
    Mn5      Mn       0.72208    0.00000    0.00000    1.000
    Cr1      Cr       0.66506    0.45491    0.35820    1.000
    Cr2      Cr       0.00835    0.90242    0.52050    1.000
    Cr3      Cr       0.94606    0.78991    0.02822    1.000
    Cr4      Cr       0.30686    0.54509    0.64180    1.000
    Cr5      Cr       0.48785    0.09758    0.47950    1.000
    Cr6      Cr       0.91784    0.21009    0.97178    1.000
    H1       H        0.89370    0.74420    0.78020    1.000
    H2       H        0.93140    0.66790    0.74260    1.000
    H3       H        0.82520    0.68310    0.69720    1.000
    H4       H        0.34840    0.68380    0.32220    1.000
    H5       H        0.33630    0.74990    0.39380    1.000
    H6       H        0.39990    0.76630    0.35060    1.000
    H7       H        0.44110    0.90590    0.84040    1.000
    H8       H        0.51510    0.96580    0.84120    1.000
    H9       H        0.46960    0.98860    0.90620    1.000
    H10      H        0.11350    0.25580    0.21980    1.000
    H11      H        0.18880    0.33210    0.25740    1.000
    H12      H        0.12800    0.31690    0.30280    1.000
    H13      H        0.02620    0.31620    0.67780    1.000
    H14      H        0.94250    0.25010    0.60620    1.000
    H15      H        0.04930    0.23370    0.64940    1.000
    H16      H        0.60070    0.09410    0.15960    1.000
    H17      H        0.67390    0.03420    0.15880    1.000
    H18      H        0.56340    0.01140    0.09380    1.000
    C1       C        0.63800    0.46110    0.22960    1.000
    C2       C        0.64840    0.38160    0.20660    1.000
    C3       C        0.77770    0.57330    0.49020    1.000
    C4       C        0.85480    0.53580    0.45980    1.000
    C5       C        0.95340    0.77090    0.51620    1.000
    C6       C        0.01930    0.82510    0.59920    1.000
    C7       C        0.04720    0.88190    0.39520    1.000
    C8       C        0.14410    0.87070    0.44920    1.000
    C9       C        0.04260    0.77560    0.15760    1.000
    C10      C        0.09210    0.85470    0.16960    1.000
    C11      C        0.81410    0.89020    0.04240    1.000
    C12      C        0.85420    0.88720    0.98160    1.000
    C13      C        0.16780    0.62650    0.59920    1.000
    C14      C        0.12880    0.59720    0.64460    1.000
    C15      C        0.38690    0.95690    0.39360    1.000
    C16      C        0.30900    0.00150    0.42220    1.000
    C17      C        0.00520    0.68040    0.92720    1.000
    C18      C        0.88820    0.65900    0.89300    1.000
    C19      C        0.89510    0.70560    0.73280    1.000
    C20      C        0.34080    0.73570    0.34440    1.000
    C21      C        0.49500    0.94910    0.87280    1.000
    C22      C        0.40840    0.53890    0.77040    1.000
    C23      C        0.44180    0.61840    0.79340    1.000
    C24      C        0.28750    0.42670    0.50980    1.000
    C25      C        0.39500    0.46420    0.54020    1.000
    C26      C        0.43720    0.22910    0.48380    1.000
    C27      C        0.42010    0.17490    0.40080    1.000
    C28      C        0.65200    0.11810    0.60480    1.000
    C29      C        0.69490    0.12930    0.55080    1.000
    C30      C        0.88500    0.22440    0.84240    1.000
    C31      C        0.92250    0.14530    0.83040    1.000
    C32      C        0.77170    0.10980    0.95760    1.000
    C33      C        0.87260    0.11280    0.01840    1.000
    C34      C        0.56860    0.37350    0.40080    1.000
    C35      C        0.48420    0.40280    0.35540    1.000
    C36      C        0.99330    0.04310    0.60640    1.000
    C37      C        0.88680    0.99850    0.57780    1.000
    C38      C        0.07800    0.31960    0.07280    1.000
    C39      C        0.99520    0.34100    0.10700    1.000
    C40      C        0.16230    0.29440    0.26720    1.000
    C41      C        0.99640    0.26430    0.65560    1.000
    C42      C        0.62220    0.05090    0.12720    1.000
    O1       O        0.64950    0.33650    0.14860    1.000
    O2       O        0.61160    0.47790    0.17460    1.000
    O3       O        0.66010    0.36890    0.26820    1.000
    O4       O        0.65060    0.50530    0.29520    1.000
    O5       O        0.81730    0.47520    0.39820    1.000
    O6       O        0.68520    0.54700    0.45320    1.000
    O7       O        0.94640    0.56310    0.49300    1.000
    O8       O        0.81180    0.63020    0.55380    1.000
    O9       O        0.91830    0.70940    0.50240    1.000
    O10      O        0.03640    0.80130    0.64820    1.000
    O11      O        0.94630    0.79550    0.47060    1.000
    O12      O        0.04440    0.89050    0.61360    1.000
    O13      O        0.97820    0.90190    0.42220    1.000
    O14      O        0.14000    0.87930    0.51080    1.000
    O15      O        0.04410    0.87140    0.33460    1.000
    O16      O        0.21520    0.85200    0.43020    1.000
    O17      O        0.07740    0.76210    0.20800    1.000
    O18      O        0.16470    0.89310    0.23360    1.000
    O19      O        0.97170    0.74380    0.09700    1.000
    O20      O        0.05870    0.86860    0.11640    1.000
    O21      O        0.84660    0.84510    0.06900    1.000
    O22      O        0.91740    0.84480    0.96880    1.000
    O23      O        0.75863    0.93440    0.06226    1.000
    O24      O        0.81570    0.92220    0.94760    1.000
    O25      O        0.04920    0.61090    0.65300    1.000
    O26      O        0.11970    0.67020    0.58220    1.000
    O27      O        0.18400    0.55800    0.66840    1.000
    O28      O        0.24980    0.60740    0.59120    1.000
    O29      O        0.22340    0.97440    0.40100    1.000
    O30      O        0.35480    0.89020    0.35140    1.000
    O31      O        0.34760    0.07000    0.47140    1.000
    O32      O        0.47570    0.99230    0.42020    1.000
    O33      O        0.84970    0.70250    0.93900    1.000
    O34      O        0.04350    0.73770    0.98460    1.000
    O35      O        0.04840    0.63860    0.88480    1.000
    O36      O        0.85410    0.60370    0.83080    1.000
    O37      O        0.94470    0.73610    0.70240    1.000
    O38      O        0.25130    0.74610    0.29660    1.000
    O39      O        0.58330    0.92960    0.91800    1.000
    O40      O        0.50090    0.66350    0.85140    1.000
    O41      O        0.43700    0.52210    0.82540    1.000
    O42      O        0.39190    0.63110    0.73180    1.000
    O43      O        0.35540    0.49470    0.70480    1.000
    O44      O        0.41910    0.52480    0.60180    1.000
    O45      O        0.23200    0.45300    0.54680    1.000
    O46      O        0.45340    0.43690    0.50700    1.000
    O47      O        0.25800    0.36980    0.44620    1.000
    O48      O        0.41590    0.29060    0.49760    1.000
    O49      O        0.38820    0.19870    0.35180    1.000
    O50      O        0.47570    0.20450    0.52940    1.000
    O51      O        0.43080    0.10950    0.38640    1.000
    O52      O        0.55600    0.09810    0.57780    1.000
    O53      O        0.62920    0.12070    0.48920    1.000
    O54      O        0.70950    0.12860    0.66540    1.000
    O55      O        0.78500    0.14800    0.56980    1.000
    O56      O        0.86940    0.23790    0.79200    1.000
    O57      O        0.93110    0.10690    0.76640    1.000
    O58      O        0.87470    0.25620    0.90300    1.000
    O59      O        0.94230    0.13140    0.88360    1.000
    O60      O        0.77760    0.15490    0.93100    1.000
    O61      O        0.94860    0.15520    0.03120    1.000
    O62      O        0.69637    0.06560    0.93774    1.000
    O63      O        0.86810    0.07780    0.05240    1.000
    O64      O        0.39620    0.38910    0.34700    1.000
    O65      O        0.53750    0.32980    0.41780    1.000
    O66      O        0.51560    0.44200    0.33160    1.000
    O67      O        0.65860    0.39260    0.40880    1.000
    O68      O        0.82240    0.02560    0.59900    1.000
    O69      O        0.00340    0.10980    0.64860    1.000
    O70      O        0.87620    0.93000    0.52860    1.000
    O71      O        0.05550    0.00770    0.57980    1.000
    O72      O        0.91070    0.29750    0.06100    1.000
    O73      O        0.05890    0.26230    0.01540    1.000
    O74      O        0.16360    0.36140    0.11520    1.000
    O75      O        0.02330    0.39630    0.16920    1.000
    O76      O        0.24230    0.26390    0.29760    1.000
    O77      O        0.95470    0.25390    0.70340    1.000
    O78      O        0.66530    0.07040    0.08200    1.000
    Fe1      Fe       0.53906    0.78679    0.62620    1.000
    H19      H        0.63150    0.94690    0.55160    1.000
    H20      H        0.58160    0.98020    0.61380    1.000
    H21      H        0.45800    0.89110    0.50540    1.000
    H22      H        0.53310    0.83160    0.49800    1.000
    H23      H        0.35560    0.90110    0.57040    1.000
    H24      H        0.23160    0.88320    0.65220    1.000
    H25      H        0.40800    0.75350    0.71980    1.000
    H26      H        0.71740    0.01690    0.72500    1.000
    H27      H        0.78300    0.95730    0.73980    1.000
    H28      H        0.66250    0.97370    0.79800    1.000
    H29      H        0.57140    0.95600    0.72040    1.000
    H30      H        0.71270    0.88800    0.82700    1.000
    H31      H        0.72440    0.75220    0.84840    1.000
    H32      H        0.54120    0.62040    0.63000    1.000
    H33      H        0.82310    0.89950    0.63400    1.000
    H34      H        0.73400    0.85890    0.55300    1.000
    H35      H        0.79270    0.77080    0.59200    1.000
    H36      H        0.77590    0.81490    0.66980    1.000
    H37      H        0.66170    0.68850    0.49180    1.000
    H38      H        0.48390    0.57680    0.38720    1.000
    H39      H        0.31640    0.66270    0.51940    1.000
    H40      H        0.25670    0.81180    0.72620    1.000
    H41      H        0.63600    0.62500    0.74920    1.000
    H42      H        0.32550    0.56540    0.40100    1.000
    C43      C        0.60520    0.93560    0.58440    1.000
    C44      C        0.51380    0.87380    0.53440    1.000
    C45      C        0.39280    0.87110    0.59060    1.000
    C46      C        0.36110    0.84510    0.63460    1.000
    C47      C        0.28360    0.85500    0.66080    1.000
    C48      C        0.38210    0.78470    0.69760    1.000
    C49      C        0.71430    0.96430    0.71340    1.000
    C50      C        0.63830    0.94380    0.74280    1.000
    C51      C        0.67030    0.85240    0.77800    1.000
    C52      C        0.65170    0.77040    0.75820    1.000
    C53      C        0.68160    0.73520    0.79700    1.000
    C54      C        0.57950    0.66250    0.67560    1.000
    C55      C        0.75250    0.87240    0.60720    1.000
    C56      C        0.74910    0.80260    0.61580    1.000
    C57      C        0.61740    0.70550    0.51860    1.000
    C58      C        0.51940    0.66780    0.49100    1.000
    C59      C        0.46420    0.60750    0.42780    1.000
    C60      C        0.37080    0.65630    0.50160    1.000
    N1       N        0.68610    0.92090    0.63480    1.000
    N2       N        0.47890    0.85030    0.57940    1.000
    N3       N        0.29520    0.81590    0.70240    1.000
    N4       N        0.42420    0.80260    0.65920    1.000
    N5       N        0.62610    0.87060    0.72560    1.000
    N6       N        0.63230    0.66410    0.74140    1.000
    N7       N        0.59100    0.73100    0.68640    1.000
    N8       N        0.64520    0.76320    0.58040    1.000
    N9       N        0.37660    0.60120    0.43500    1.000
    N10      N        0.46090    0.69640    0.53240    1.000
    Fe2      Fe       0.60866    0.73670    0.20488    1.000
    H43      H        0.56250    0.97840    0.26580    1.000
    H44      H        0.51640    0.92990    0.29500    1.000
    H45      H        0.55200    0.86840    0.15460    1.000
    H46      H        0.44100    0.87470    0.15900    1.000
    H47      H        0.35830    0.79060    0.15280    1.000
    H48      H        0.25290    0.67170    0.15760    1.000
    H49      H        0.51910    0.57750    0.20900    1.000
    H50      H        0.74810    0.97510    0.29060    1.000
    H51      H        0.66550    0.91270    0.21360    1.000
    H52      H        0.86030    0.86690    0.25260    1.000
    H53      H        0.79110    0.79230    0.13100    1.000
    H54      H        0.67850    0.67350    0.96820    1.000
    H55      H        0.47670    0.59250    0.02500    1.000
    H56      H        0.64680    0.96160    0.39860    1.000
    H57      H        0.74800    0.92720    0.39840    1.000
    H58      H        0.55330    0.85180    0.34840    1.000
    H59      H        0.64970    0.86010    0.41920    1.000
    H60      H        0.74170    0.77160    0.40700    1.000
    H61      H        0.84140    0.63960    0.36340    1.000
    H62      H        0.71500    0.57880    0.14280    1.000
    H63      H        0.33640    0.55120    0.16340    1.000
    H64      H        0.52230    0.57960    0.92560    1.000
    H65      H        0.84330    0.55860    0.24480    1.000
    C61      C        0.55880    0.93010    0.26620    1.000
    C62      C        0.51040    0.86730    0.18380    1.000
    C63      C        0.41310    0.76630    0.16660    1.000
    C64      C        0.40130    0.69930    0.16900    1.000
    C65      C        0.32000    0.66150    0.16400    1.000
    C66      C        0.47110    0.60550    0.19360    1.000
    C67      C        0.71080    0.92430    0.26560    1.000
    C68      C        0.73750    0.77000    0.13660    1.000
    C69      C        0.66580    0.70710    0.07860    1.000
    C70      C        0.64370    0.66660    0.99680    1.000
    C71      C        0.53090    0.62320    0.02880    1.000
    C72      C        0.67400    0.91890    0.36980    1.000
    C73      C        0.62810    0.85420    0.36720    1.000
    C74      C        0.71590    0.75230    0.35380    1.000
    C75      C        0.74610    0.68900    0.30820    1.000
    C76      C        0.80520    0.64000    0.31680    1.000
    C77      C        0.73700    0.60770    0.19580    1.000
    C78      C        0.78470    0.88000    0.24940    1.000
    N11      N        0.66020    0.91810    0.30100    1.000
    N12      N        0.50500    0.79060    0.18500    1.000
    N13      N        0.37100    0.59200    0.17220    1.000
    N14      N        0.49040    0.66880    0.18880    1.000
    N15      N        0.71990    0.79330    0.19900    1.000
    N16      N        0.55480    0.61340    0.97220    1.000
    N17      N        0.58900    0.68090    0.09400    1.000
    N18      N        0.65150    0.78310    0.32000    1.000
    N19      N        0.80590    0.59360    0.25240    1.000
    N20      N        0.70980    0.67000    0.23300    1.000
    Fe3      Fe       0.91286    0.21321    0.37380    1.000
    H66      H        0.07990    0.05310    0.44840    1.000
    H67      H        0.96780    0.01980    0.38620    1.000
    H68      H        0.95260    0.10890    0.49460    1.000
    H69      H        0.03510    0.16840    0.50200    1.000
    H70      H        0.78520    0.09890    0.42960    1.000
    H71      H        0.57940    0.11680    0.34780    1.000
    H72      H        0.68820    0.24650    0.28020    1.000
    H73      H        0.99240    0.98310    0.27500    1.000
    H74      H        0.04320    0.04270    0.26020    1.000
    H75      H        0.86450    0.02630    0.20200    1.000
    H76      H        0.85100    0.04400    0.27960    1.000
    H77      H        0.88570    0.11200    0.17300    1.000
    H78      H        0.87600    0.24780    0.15160    1.000
    H79      H        0.91120    0.37960    0.37000    1.000
    H80      H        0.18910    0.10050    0.36600    1.000
    H81      H        0.18100    0.14110    0.44700    1.000
    H82      H        0.20070    0.22920    0.40800    1.000
    H83      H        0.10610    0.18510    0.33020    1.000
    H84      H        0.16990    0.31150    0.50820    1.000
    H85      H        0.09670    0.42320    0.61280    1.000
    H86      H        0.79700    0.33730    0.48060    1.000
    H87      H        0.53050    0.18820    0.27380    1.000
    H88      H        0.88680    0.37500    0.25080    1.000
    H89      H        0.92450    0.43460    0.59900    1.000
    C79      C        0.02080    0.06440    0.41560    1.000
    C80      C        0.97940    0.12620    0.46560    1.000
    C81      C        0.80220    0.12890    0.40940    1.000
    C82      C        0.72650    0.15490    0.36540    1.000
    C83      C        0.62280    0.14500    0.33920    1.000
    C84      C        0.68450    0.21530    0.30240    1.000
    C85      C        0.00090    0.03570    0.28660    1.000
    C86      C        0.89550    0.05620    0.25720    1.000
    C87      C        0.89230    0.14760    0.22200    1.000
    C88      C        0.89350    0.22960    0.24180    1.000
    C89      C        0.88460    0.26480    0.20300    1.000
    C90      C        0.90390    0.33750    0.32440    1.000
    C91      C        0.14530    0.12760    0.39280    1.000
    C92      C        0.13330    0.19740    0.38420    1.000
    C93      C        0.09880    0.29450    0.48140    1.000
    C94      C        0.02840    0.33220    0.50900    1.000
    C95      C        0.03640    0.39250    0.57220    1.000
    C96      C        0.86920    0.34370    0.49840    1.000
    N21      N        0.05130    0.07910    0.36520    1.000
    N22      N        0.89950    0.14970    0.42060    1.000
    N23      N        0.59280    0.18410    0.29760    1.000
    N24      N        0.76500    0.19740    0.34080    1.000
    N25      N        0.90050    0.12940    0.27440    1.000
    N26      N        0.89090    0.33590    0.25860    1.000
    N27      N        0.90460    0.26900    0.31360    1.000
    N28      N        0.06480    0.23680    0.41960    1.000
    N29      N        0.94160    0.39880    0.56500    1.000
    N30      N        0.92850    0.30360    0.46760    1.000
    Fe4      Fe       0.40378    0.26330    0.79512    1.000
    H90      H        0.29670    0.02160    0.73420    1.000
    H91      H        0.22140    0.07010    0.70500    1.000
    H92      H        0.39740    0.13160    0.84540    1.000
    H93      H        0.28200    0.12530    0.84100    1.000
    H94      H        0.20550    0.20940    0.84720    1.000
    H95      H        0.09530    0.32830    0.84240    1.000
    H96      H        0.31010    0.42250    0.79100    1.000
    H97      H        0.45750    0.02490    0.70940    1.000
    H98      H        0.45190    0.08730    0.78640    1.000
    H99      H        0.60770    0.13310    0.74740    1.000
    H100     H        0.66010    0.20770    0.86900    1.000
    H101     H        0.71030    0.32650    0.03180    1.000
    H102     H        0.45170    0.40750    0.97500    1.000
    H103     H        0.24820    0.03840    0.60140    1.000
    H104     H        0.34960    0.07280    0.60160    1.000
    H105     H        0.20490    0.14820    0.65160    1.000
    H106     H        0.23050    0.13990    0.58080    1.000
    H107     H        0.33470    0.22840    0.59300    1.000
    H108     H        0.47800    0.36040    0.63660    1.000
    H109     H        0.57220    0.42120    0.85720    1.000
    H110     H        0.17300    0.44880    0.83660    1.000
    H111     H        0.59670    0.42040    0.07440    1.000
    H112     H        0.59850    0.44140    0.75520    1.000
    C97      C        0.29260    0.06990    0.73380    1.000
    C98      C        0.32660    0.13270    0.81620    1.000
    C99      C        0.24650    0.23370    0.83340    1.000
    C100     C        0.23230    0.30070    0.83100    1.000
    C101     C        0.15600    0.33850    0.83600    1.000
    C102     C        0.27750    0.39450    0.80640    1.000
    C103     C        0.44520    0.07570    0.73440    1.000
    C104     C        0.60090    0.23000    0.86340    1.000
    C105     C        0.58720    0.29290    0.92140    1.000
    C106     C        0.64690    0.33340    0.00320    1.000
    C107     C        0.50210    0.37680    0.97120    1.000
    C108     C        0.30420    0.08110    0.63020    1.000
    C109     C        0.26090    0.14580    0.63280    1.000
    C110     C        0.36210    0.24770    0.64620    1.000
    C111     C        0.43790    0.31100    0.69180    1.000
    C112     C        0.48840    0.36000    0.68320    1.000
    C113     C        0.54120    0.39230    0.80420    1.000
    C114     C        0.53530    0.12000    0.75060    1.000
    N31      N        0.35920    0.08190    0.69900    1.000
    N32      N        0.32000    0.20940    0.81500    1.000
    N33      N        0.19880    0.40800    0.82780    1.000
    N34      N        0.30160    0.33120    0.81120    1.000
    N35      N        0.52090    0.20670    0.80100    1.000
    N36      N        0.58260    0.38660    0.02780    1.000
    N37      N        0.49500    0.31910    0.90600    1.000
    N38      N        0.33150    0.21690    0.68000    1.000
    N39      N        0.55350    0.40640    0.74760    1.000
    N40      N        0.47680    0.33000    0.76700    1.000
