# CIF file generated by openbabel 3.1.0, see https://openbabel.org
data_I
_chemical_name_common 'image0'
_cell_length_a 15.338
_cell_length_b 22.1
_cell_length_c 16.425
_cell_angle_alpha 90
_cell_angle_beta 102.64
_cell_angle_gamma 90
_space_group_name_H-M_alt 'P 1'
_space_group_name_Hall 'P 1'
loop_
    _symmetry_equiv_pos_as_xyz
    x,y,z
loop_
    _atom_site_label
    _atom_site_type_symbol
    _atom_site_fract_x
    _atom_site_fract_y
    _atom_site_fract_z
    _atom_site_occupancy
    Mn1      Mn       0.45457    0.49178    0.63591    1.000
    O1       O        0.37050    0.55813    0.67000    1.000
    O2       O        0.23350    0.53870    0.60230    1.000
    O3       O        0.62427    0.57487    0.31838    1.000
    O4       O        0.57584    0.55111    0.18423    1.000
    O5       O        0.00971    0.93654    0.08083    1.000
    O6       O        0.07965    0.94096    0.97654    1.000
    O7       O        0.09680    0.71739    0.89786    1.000
    O8       O        0.92675    0.71720    0.10070    1.000
    C1       C        0.16680    0.63240    0.68160    1.000
    H1       H        0.13070    0.61520    0.63450    1.000
    C2       C        0.13150    0.67550    0.72520    1.000
    H2       H        0.07250    0.68790    0.70700    1.000
    C3       C        0.18480    0.70053    0.79725    1.000
    C4       C        0.27220    0.68246    0.82280    1.000
    H3       H        0.30780    0.69910    0.87070    1.000
    C5       C        0.30770    0.63916    0.77730    1.000
    H4       H        0.36700    0.62710    0.79480    1.000
    C6       C        0.25460    0.61420    0.70600    1.000
    C7       C        0.73640    0.68813    0.11920    1.000
    H5       H        0.72530    0.70470    0.06590    1.000
    C8       C        0.67550    0.64750    0.13990    1.000
    H6       H        0.62450    0.63680    0.10050    1.000
    C9       C        0.69091    0.62316    0.21909    1.000
    C10      C        0.76670    0.63936    0.27608    1.000
    H7       H        0.77730    0.62340    0.32970    1.000
    C11      C        0.82780    0.67936    0.25470    1.000
    H8       H        0.87940    0.68950    0.29370    1.000
    C12      C        0.81230    0.70418    0.17570    1.000
    C13      C        0.01390    0.72092    0.00100    1.000
    H9       H        0.00870    0.67910    0.99670    1.000
    C14      C        0.97460    0.75231    0.05711    1.000
    C15      C        0.98415    0.81454    0.06572    1.000
    H10      H        0.95910    0.83530    0.10420    1.000
    C16      C        0.03173    0.84533    0.01591    1.000
    C17      C        0.07017    0.81508    0.95796    1.000
    H11      H        0.10130    0.83630    0.92440    1.000
    C18      C        0.06100    0.75260    0.95146    1.000
    C19      C        0.29130    0.56650    0.65620    1.000
    C20      C        0.62420    0.57962    0.24200    1.000
    C21      C        0.03976    0.91296    0.02480    1.000
    C22      C        0.14710    0.74803    0.84600    1.000
    H12      H        0.19520    0.77130    0.88010    1.000
    H13      H        0.10870    0.77550    0.80810    1.000
    C23      C        0.87650    0.74896    0.15160    1.000
    H14      H        0.84400    0.78240    0.12070    1.000
    H15      H        0.91630    0.76500    0.20110    1.000
    Mn2      Mn       0.95457    0.99178    0.63591    1.000
    O9       O        0.87050    0.05813    0.67000    1.000
    O10      O        0.73350    0.03870    0.60230    1.000
    O11      O        0.12427    0.07487    0.31838    1.000
    O12      O        0.07584    0.05111    0.18423    1.000
    O13      O        0.50971    0.43654    0.08083    1.000
    O14      O        0.57965    0.44096    0.97654    1.000
    O15      O        0.59680    0.21739    0.89786    1.000
    O16      O        0.42675    0.21720    0.10070    1.000
    C24      C        0.66680    0.13240    0.68160    1.000
    H16      H        0.63070    0.11520    0.63450    1.000
    C25      C        0.63150    0.17550    0.72520    1.000
    H17      H        0.57250    0.18790    0.70700    1.000
    C26      C        0.68480    0.20053    0.79725    1.000
    C27      C        0.77220    0.18246    0.82280    1.000
    H18      H        0.80780    0.19910    0.87070    1.000
    C28      C        0.80770    0.13916    0.77730    1.000
    H19      H        0.86700    0.12710    0.79480    1.000
    C29      C        0.75460    0.11420    0.70600    1.000
    C30      C        0.23640    0.18813    0.11920    1.000
    H20      H        0.22530    0.20470    0.06590    1.000
    C31      C        0.17550    0.14750    0.13990    1.000
    H21      H        0.12450    0.13680    0.10050    1.000
    C32      C        0.19091    0.12316    0.21909    1.000
    C33      C        0.26670    0.13936    0.27608    1.000
    H22      H        0.27730    0.12340    0.32970    1.000
    C34      C        0.32780    0.17936    0.25470    1.000
    H23      H        0.37940    0.18950    0.29370    1.000
    C35      C        0.31230    0.20418    0.17570    1.000
    C36      C        0.51390    0.22092    0.00100    1.000
    H24      H        0.50870    0.17910    0.99670    1.000
    C37      C        0.47460    0.25231    0.05711    1.000
    C38      C        0.48415    0.31454    0.06572    1.000
    H25      H        0.45910    0.33530    0.10420    1.000
    C39      C        0.53173    0.34533    0.01591    1.000
    C40      C        0.57017    0.31508    0.95796    1.000
    H26      H        0.60130    0.33630    0.92440    1.000
    C41      C        0.56100    0.25260    0.95146    1.000
    C42      C        0.79130    0.06650    0.65620    1.000
    C43      C        0.12420    0.07962    0.24200    1.000
    C44      C        0.53976    0.41296    0.02480    1.000
    C45      C        0.64710    0.24803    0.84600    1.000
    H27      H        0.69520    0.27130    0.88010    1.000
    H28      H        0.60870    0.27550    0.80810    1.000
    C46      C        0.37650    0.24896    0.15160    1.000
    H29      H        0.34400    0.28240    0.12070    1.000
    H30      H        0.41630    0.26500    0.20110    1.000
    Mn3      Mn       0.54543    0.49178    0.86409    1.000
    O17      O        0.62950    0.55813    0.83000    1.000
    O18      O        0.76650    0.53870    0.89770    1.000
    O19      O        0.37573    0.57487    0.18162    1.000
    O20      O        0.42416    0.55111    0.31577    1.000
    O21      O        0.99029    0.93654    0.41917    1.000
    O22      O        0.92035    0.94096    0.52346    1.000
    O23      O        0.90320    0.71739    0.60214    1.000
    O24      O        0.07325    0.71720    0.39930    1.000
    C47      C        0.83320    0.63240    0.81840    1.000
    H31      H        0.86930    0.61520    0.86550    1.000
    C48      C        0.86850    0.67550    0.77480    1.000
    H32      H        0.92750    0.68790    0.79300    1.000
    C49      C        0.81520    0.70053    0.70275    1.000
    C50      C        0.72780    0.68246    0.67720    1.000
    H33      H        0.69220    0.69910    0.62930    1.000
    C51      C        0.69230    0.63916    0.72270    1.000
    H34      H        0.63300    0.62710    0.70520    1.000
    C52      C        0.74540    0.61420    0.79400    1.000
    C53      C        0.26360    0.68813    0.38080    1.000
    H35      H        0.27470    0.70470    0.43410    1.000
    C54      C        0.32450    0.64750    0.36010    1.000
    H36      H        0.37550    0.63680    0.39950    1.000
    C55      C        0.30909    0.62316    0.28091    1.000
    C56      C        0.23330    0.63936    0.22392    1.000
    H37      H        0.22270    0.62340    0.17030    1.000
    C57      C        0.17220    0.67936    0.24530    1.000
    H38      H        0.12060    0.68950    0.20630    1.000
    C58      C        0.18770    0.70418    0.32430    1.000
    C59      C        0.98610    0.72092    0.49900    1.000
    H39      H        0.99130    0.67910    0.50330    1.000
    C60      C        0.02540    0.75231    0.44289    1.000
    C61      C        0.01585    0.81454    0.43428    1.000
    H40      H        0.04090    0.83530    0.39580    1.000
    C62      C        0.96827    0.84533    0.48409    1.000
    C63      C        0.92983    0.81508    0.54204    1.000
    H41      H        0.89870    0.83630    0.57560    1.000
    C64      C        0.93900    0.75260    0.54854    1.000
    C65      C        0.70870    0.56650    0.84380    1.000
    C66      C        0.37580    0.57962    0.25800    1.000
    C67      C        0.96024    0.91296    0.47520    1.000
    C68      C        0.85290    0.74803    0.65400    1.000
    H42      H        0.80480    0.77130    0.61990    1.000
    H43      H        0.89130    0.77550    0.69190    1.000
    C69      C        0.12350    0.74896    0.34840    1.000
    H44      H        0.15600    0.78240    0.37930    1.000
    H45      H        0.08370    0.76500    0.29890    1.000
    Mn4      Mn       0.04543    0.99178    0.86409    1.000
    O25      O        0.12950    0.05813    0.83000    1.000
    O26      O        0.26650    0.03870    0.89770    1.000
    O27      O        0.87573    0.07487    0.18162    1.000
    O28      O        0.92416    0.05111    0.31577    1.000
    O29      O        0.49029    0.43654    0.41917    1.000
    O30      O        0.42035    0.44096    0.52346    1.000
    O31      O        0.40320    0.21739    0.60214    1.000
    O32      O        0.57325    0.21720    0.39930    1.000
    C70      C        0.33320    0.13240    0.81840    1.000
    H46      H        0.36930    0.11520    0.86550    1.000
    C71      C        0.36850    0.17550    0.77480    1.000
    H47      H        0.42750    0.18790    0.79300    1.000
    C72      C        0.31520    0.20053    0.70275    1.000
    C73      C        0.22780    0.18246    0.67720    1.000
    H48      H        0.19220    0.19910    0.62930    1.000
    C74      C        0.19230    0.13916    0.72270    1.000
    H49      H        0.13300    0.12710    0.70520    1.000
    C75      C        0.24540    0.11420    0.79400    1.000
    C76      C        0.76360    0.18813    0.38080    1.000
    H50      H        0.77470    0.20470    0.43410    1.000
    C77      C        0.82450    0.14750    0.36010    1.000
    H51      H        0.87550    0.13680    0.39950    1.000
    C78      C        0.80909    0.12316    0.28091    1.000
    C79      C        0.73330    0.13936    0.22392    1.000
    H52      H        0.72270    0.12340    0.17030    1.000
    C80      C        0.67220    0.17936    0.24530    1.000
    H53      H        0.62060    0.18950    0.20630    1.000
    C81      C        0.68770    0.20418    0.32430    1.000
    C82      C        0.48610    0.22092    0.49900    1.000
    H54      H        0.49130    0.17910    0.50330    1.000
    C83      C        0.52540    0.25231    0.44289    1.000
    C84      C        0.51585    0.31454    0.43428    1.000
    H55      H        0.54090    0.33530    0.39580    1.000
    C85      C        0.46827    0.34533    0.48409    1.000
    C86      C        0.42983    0.31508    0.54204    1.000
    H56      H        0.39870    0.33630    0.57560    1.000
    C87      C        0.43900    0.25260    0.54854    1.000
    C88      C        0.20870    0.06650    0.84380    1.000
    C89      C        0.87580    0.07962    0.25800    1.000
    C90      C        0.46024    0.41296    0.47520    1.000
    C91      C        0.35290    0.24803    0.65400    1.000
    H57      H        0.30480    0.27130    0.61990    1.000
    H58      H        0.39130    0.27550    0.69190    1.000
    C92      C        0.62350    0.24896    0.34840    1.000
    H59      H        0.65600    0.28240    0.37930    1.000
    H60      H        0.58370    0.26500    0.29890    1.000
    Mn5      Mn       0.54543    0.50822    0.36409    1.000
    O33      O        0.62950    0.44187    0.33000    1.000
    O34      O        0.76650    0.46130    0.39770    1.000
    O35      O        0.37573    0.42513    0.68162    1.000
    O36      O        0.42416    0.44889    0.81577    1.000
    O37      O        0.99029    0.06346    0.91917    1.000
    O38      O        0.92035    0.05904    0.02346    1.000
    O39      O        0.90320    0.28261    0.10214    1.000
    O40      O        0.07325    0.28280    0.89930    1.000
    C93      C        0.83320    0.36760    0.31840    1.000
    H61      H        0.86930    0.38480    0.36550    1.000
    C94      C        0.86850    0.32450    0.27480    1.000
    H62      H        0.92750    0.31210    0.29300    1.000
    C95      C        0.81520    0.29947    0.20275    1.000
    C96      C        0.72780    0.31754    0.17720    1.000
    H63      H        0.69220    0.30090    0.12930    1.000
    C97      C        0.69230    0.36084    0.22270    1.000
    H64      H        0.63300    0.37290    0.20520    1.000
    C98      C        0.74540    0.38580    0.29400    1.000
    C99      C        0.26360    0.31187    0.88080    1.000
    H65      H        0.27470    0.29530    0.93410    1.000
    C100     C        0.32450    0.35250    0.86010    1.000
    H66      H        0.37550    0.36320    0.89950    1.000
    C101     C        0.30909    0.37684    0.78091    1.000
    C102     C        0.23330    0.36064    0.72392    1.000
    H67      H        0.22270    0.37660    0.67030    1.000
    C103     C        0.17220    0.32064    0.74530    1.000
    H68      H        0.12060    0.31050    0.70630    1.000
    C104     C        0.18770    0.29582    0.82430    1.000
    C105     C        0.98610    0.27908    0.99900    1.000
    H69      H        0.99130    0.32090    0.00330    1.000
    C106     C        0.02540    0.24769    0.94289    1.000
    C107     C        0.01585    0.18546    0.93428    1.000
    H70      H        0.04090    0.16470    0.89580    1.000
    C108     C        0.96827    0.15467    0.98409    1.000
    C109     C        0.92983    0.18492    0.04204    1.000
    H71      H        0.89870    0.16370    0.07560    1.000
    C110     C        0.93900    0.24740    0.04854    1.000
    C111     C        0.70870    0.43350    0.34380    1.000
    C112     C        0.37580    0.42038    0.75800    1.000
    C113     C        0.96024    0.08704    0.97520    1.000
    C114     C        0.85290    0.25197    0.15400    1.000
    H72      H        0.80480    0.22870    0.11990    1.000
    H73      H        0.89130    0.22450    0.19190    1.000
    C115     C        0.12350    0.25104    0.84840    1.000
    H74      H        0.15600    0.21760    0.87930    1.000
    H75      H        0.08370    0.23500    0.79890    1.000
    Mn6      Mn       0.04543    0.00822    0.36409    1.000
    O41      O        0.12950    0.94187    0.33000    1.000
    O42      O        0.26650    0.96130    0.39770    1.000
    O43      O        0.87573    0.92513    0.68162    1.000
    O44      O        0.92416    0.94889    0.81577    1.000
    O45      O        0.49029    0.56346    0.91917    1.000
    O46      O        0.42035    0.55904    0.02346    1.000
    O47      O        0.40320    0.78261    0.10214    1.000
    O48      O        0.57325    0.78280    0.89930    1.000
    C116     C        0.33320    0.86760    0.31840    1.000
    H76      H        0.36930    0.88480    0.36550    1.000
    C117     C        0.36850    0.82450    0.27480    1.000
    H77      H        0.42750    0.81210    0.29300    1.000
    C118     C        0.31520    0.79947    0.20275    1.000
    C119     C        0.22780    0.81754    0.17720    1.000
    H78      H        0.19220    0.80090    0.12930    1.000
    C120     C        0.19230    0.86084    0.22270    1.000
    H79      H        0.13300    0.87290    0.20520    1.000
    C121     C        0.24540    0.88580    0.29400    1.000
    C122     C        0.76360    0.81187    0.88080    1.000
    H80      H        0.77470    0.79530    0.93410    1.000
    C123     C        0.82450    0.85250    0.86010    1.000
    H81      H        0.87550    0.86320    0.89950    1.000
    C124     C        0.80909    0.87684    0.78091    1.000
    C125     C        0.73330    0.86064    0.72392    1.000
    H82      H        0.72270    0.87660    0.67030    1.000
    C126     C        0.67220    0.82064    0.74530    1.000
    H83      H        0.62060    0.81050    0.70630    1.000
    C127     C        0.68770    0.79582    0.82430    1.000
    C128     C        0.48610    0.77908    0.99900    1.000
    H84      H        0.49130    0.82090    0.00330    1.000
    C129     C        0.52540    0.74769    0.94289    1.000
    C130     C        0.51585    0.68546    0.93428    1.000
    H85      H        0.54090    0.66470    0.89580    1.000
    C131     C        0.46827    0.65467    0.98409    1.000
    C132     C        0.42983    0.68492    0.04204    1.000
    H86      H        0.39870    0.66370    0.07560    1.000
    C133     C        0.43900    0.74740    0.04854    1.000
    C134     C        0.20870    0.93350    0.34380    1.000
    C135     C        0.87580    0.92038    0.75800    1.000
    C136     C        0.46024    0.58704    0.97520    1.000
    C137     C        0.35290    0.75197    0.15400    1.000
    H87      H        0.30480    0.72870    0.11990    1.000
    H88      H        0.39130    0.72450    0.19190    1.000
    C138     C        0.62350    0.75104    0.84840    1.000
    H89      H        0.65600    0.71760    0.87930    1.000
    H90      H        0.58370    0.73500    0.79890    1.000
    Mn7      Mn       0.45457    0.50822    0.13591    1.000
    O49      O        0.37050    0.44187    0.17000    1.000
    O50      O        0.23350    0.46130    0.10230    1.000
    O51      O        0.62427    0.42513    0.81838    1.000
    O52      O        0.57584    0.44889    0.68423    1.000
    O53      O        0.00971    0.06346    0.58083    1.000
    O54      O        0.07965    0.05904    0.47654    1.000
    O55      O        0.09680    0.28261    0.39786    1.000
    O56      O        0.92675    0.28280    0.60070    1.000
    C139     C        0.16680    0.36760    0.18160    1.000
    H91      H        0.13070    0.38480    0.13450    1.000
    C140     C        0.13150    0.32450    0.22520    1.000
    H92      H        0.07250    0.31210    0.20700    1.000
    C141     C        0.18480    0.29947    0.29725    1.000
    C142     C        0.27220    0.31754    0.32280    1.000
    H93      H        0.30780    0.30090    0.37070    1.000
    C143     C        0.30770    0.36084    0.27730    1.000
    H94      H        0.36700    0.37290    0.29480    1.000
    C144     C        0.25460    0.38580    0.20600    1.000
    C145     C        0.73640    0.31187    0.61920    1.000
    H95      H        0.72530    0.29530    0.56590    1.000
    C146     C        0.67550    0.35250    0.63990    1.000
    H96      H        0.62450    0.36320    0.60050    1.000
    C147     C        0.69091    0.37684    0.71909    1.000
    C148     C        0.76670    0.36064    0.77608    1.000
    H97      H        0.77730    0.37660    0.82970    1.000
    C149     C        0.82780    0.32064    0.75470    1.000
    H98      H        0.87940    0.31050    0.79370    1.000
    C150     C        0.81230    0.29582    0.67570    1.000
    C151     C        0.01390    0.27908    0.50100    1.000
    H99      H        0.00870    0.32090    0.49670    1.000
    C152     C        0.97460    0.24769    0.55711    1.000
    C153     C        0.98415    0.18546    0.56572    1.000
    H100     H        0.95910    0.16470    0.60420    1.000
    C154     C        0.03173    0.15467    0.51591    1.000
    C155     C        0.07017    0.18492    0.45796    1.000
    H101     H        0.10130    0.16370    0.42440    1.000
    C156     C        0.06100    0.24740    0.45146    1.000
    C157     C        0.29130    0.43350    0.15620    1.000
    C158     C        0.62420    0.42038    0.74200    1.000
    C159     C        0.03976    0.08704    0.52480    1.000
    C160     C        0.14710    0.25197    0.34600    1.000
    H102     H        0.19520    0.22870    0.38010    1.000
    H103     H        0.10870    0.22450    0.30810    1.000
    C161     C        0.87650    0.25104    0.65160    1.000
    H104     H        0.84400    0.21760    0.62070    1.000
    H105     H        0.91630    0.23500    0.70110    1.000
    Mn8      Mn       0.95457    0.00822    0.13591    1.000
    O57      O        0.87050    0.94187    0.17000    1.000
    O58      O        0.73350    0.96130    0.10230    1.000
    O59      O        0.12427    0.92513    0.81838    1.000
    O60      O        0.07584    0.94889    0.68423    1.000
    O61      O        0.50971    0.56346    0.58083    1.000
    O62      O        0.57965    0.55904    0.47654    1.000
    O63      O        0.59680    0.78261    0.39786    1.000
    O64      O        0.42675    0.78280    0.60070    1.000
    C162     C        0.66680    0.86760    0.18160    1.000
    H106     H        0.63070    0.88480    0.13450    1.000
    C163     C        0.63150    0.82450    0.22520    1.000
    H107     H        0.57250    0.81210    0.20700    1.000
    C164     C        0.68480    0.79947    0.29725    1.000
    C165     C        0.77220    0.81754    0.32280    1.000
    H108     H        0.80780    0.80090    0.37070    1.000
    C166     C        0.80770    0.86084    0.27730    1.000
    H109     H        0.86700    0.87290    0.29480    1.000
    C167     C        0.75460    0.88580    0.20600    1.000
    C168     C        0.23640    0.81187    0.61920    1.000
    H110     H        0.22530    0.79530    0.56590    1.000
    C169     C        0.17550    0.85250    0.63990    1.000
    H111     H        0.12450    0.86320    0.60050    1.000
    C170     C        0.19091    0.87684    0.71909    1.000
    C171     C        0.26670    0.86064    0.77608    1.000
    H112     H        0.27730    0.87660    0.82970    1.000
    C172     C        0.32780    0.82064    0.75470    1.000
    H113     H        0.37940    0.81050    0.79370    1.000
    C173     C        0.31230    0.79582    0.67570    1.000
    C174     C        0.51390    0.77908    0.50100    1.000
    H114     H        0.50870    0.82090    0.49670    1.000
    C175     C        0.47460    0.74769    0.55711    1.000
    C176     C        0.48415    0.68546    0.56572    1.000
    H115     H        0.45910    0.66470    0.60420    1.000
    C177     C        0.53173    0.65467    0.51591    1.000
    C178     C        0.57017    0.68492    0.45796    1.000
    H116     H        0.60130    0.66370    0.42440    1.000
    C179     C        0.56100    0.74740    0.45146    1.000
    C180     C        0.79130    0.93350    0.15620    1.000
    C181     C        0.12420    0.92038    0.74200    1.000
    C182     C        0.53976    0.58704    0.52480    1.000
    C183     C        0.64710    0.75197    0.34600    1.000
    H117     H        0.69520    0.72870    0.38010    1.000
    H118     H        0.60870    0.72450    0.30810    1.000
    C184     C        0.37650    0.75104    0.65160    1.000
    H119     H        0.34400    0.71760    0.62070    1.000
    H120     H        0.41630    0.73500    0.70110    1.000
