# CIF file generated by openbabel 3.1.0, see https://openbabel.org
data_I
_chemical_name_common 'image0'
_cell_length_a 10.158
_cell_length_b 13.269
_cell_length_c 14.47
_cell_angle_alpha 90
_cell_angle_beta 90
_cell_angle_gamma 90
_space_group_name_H-M_alt 'P 1'
_space_group_name_Hall 'P 1'
loop_
    _symmetry_equiv_pos_as_xyz
    x,y,z
loop_
    _atom_site_label
    _atom_site_type_symbol
    _atom_site_fract_x
    _atom_site_fract_y
    _atom_site_fract_z
    _atom_site_occupancy
    La1      La       0.00135    0.84236    0.69621    1.000
    O1       O        0.22520    0.97400    0.68860    1.000
    O2       O        0.06630    0.99710    0.79230    1.000
    O3       O        0.34070    0.28760    0.08290    1.000
    O4       O        0.15350    0.20450    0.07200    1.000
    O5       O        0.84510    0.80360    0.81950    1.000
    O6       O        0.65930    0.71570    0.81170    1.000
    O7       O        0.53790    0.49770    0.08770    1.000
    O8       O        0.68770    0.48210    0.19660    1.000
    C1       C        0.26150    0.09470    0.80990    1.000
    C2       C        0.22460    0.12670    0.89780    1.000
    H1       H        0.14740    0.10250    0.92430    1.000
    C3       C        0.30230    0.19450    0.94620    1.000
    C4       C        0.41780    0.22990    0.90670    1.000
    H2       H        0.47150    0.27390    0.93950    1.000
    C5       C        0.45320    0.19990    0.81860    1.000
    H3       H        0.52970    0.22520    0.79200    1.000
    C6       C        0.37640    0.13320    0.77030    1.000
    H4       H        0.40080    0.11350    0.71100    1.000
    C7       C        0.17840    0.01760    0.76130    1.000
    C8       C        0.26210    0.23150    0.04180    1.000
    C9       C        0.77600    0.71740    0.95310    1.000
    C10      C        0.70210    0.64010    0.99180    1.000
    H5       H        0.63970    0.60720    0.95590    1.000
    C11      C        0.71960    0.61100    0.08340    1.000
    C12      C        0.80930    0.66430    0.13760    1.000
    H6       H        0.81980    0.64720    0.19950    1.000
    C13      C        0.88240    0.74160    0.10090    1.000
    H7       H        0.94280    0.77570    0.13770    1.000
    C14      C        0.86620    0.76920    0.00860    1.000
    H8       H        0.91520    0.82200    0.98400    1.000
    C15      C        0.75800    0.74640    0.85410    1.000
    C16      C        0.64420    0.52500    0.12590    1.000
    La2      La       0.99865    0.15764    0.19621    1.000
    O9       O        0.77480    0.02600    0.18860    1.000
    O10      O        0.93370    0.00290    0.29230    1.000
    O11      O        0.65930    0.71240    0.58290    1.000
    O12      O        0.84650    0.79550    0.57200    1.000
    O13      O        0.15490    0.19640    0.31950    1.000
    O14      O        0.34070    0.28430    0.31170    1.000
    O15      O        0.46210    0.50230    0.58770    1.000
    O16      O        0.31230    0.51790    0.69660    1.000
    C17      C        0.73850    0.90530    0.30990    1.000
    C18      C        0.77540    0.87330    0.39780    1.000
    H9       H        0.85260    0.89750    0.42430    1.000
    C19      C        0.69770    0.80550    0.44620    1.000
    C20      C        0.58220    0.77010    0.40670    1.000
    H10      H        0.52850    0.72610    0.43950    1.000
    C21      C        0.54680    0.80010    0.31860    1.000
    H11      H        0.47030    0.77480    0.29200    1.000
    C22      C        0.62360    0.86680    0.27030    1.000
    H12      H        0.59920    0.88650    0.21100    1.000
    C23      C        0.82160    0.98240    0.26130    1.000
    C24      C        0.73790    0.76850    0.54180    1.000
    C25      C        0.22400    0.28260    0.45310    1.000
    C26      C        0.29790    0.35990    0.49180    1.000
    H13      H        0.36030    0.39280    0.45590    1.000
    C27      C        0.28040    0.38900    0.58340    1.000
    C28      C        0.19070    0.33570    0.63760    1.000
    H14      H        0.18020    0.35280    0.69950    1.000
    C29      C        0.11760    0.25840    0.60090    1.000
    H15      H        0.05720    0.22430    0.63770    1.000
    C30      C        0.13380    0.23080    0.50860    1.000
    H16      H        0.08480    0.17800    0.48400    1.000
    C31      C        0.24200    0.25360    0.35410    1.000
    C32      C        0.35580    0.47500    0.62590    1.000
    La3      La       0.50135    0.65764    0.69621    1.000
    O17      O        0.72520    0.52600    0.68860    1.000
    O18      O        0.56630    0.50290    0.79230    1.000
    O19      O        0.84070    0.21240    0.08290    1.000
    O20      O        0.65350    0.29550    0.07200    1.000
    O21      O        0.34510    0.69640    0.81950    1.000
    O22      O        0.15930    0.78430    0.81170    1.000
    O23      O        0.03790    0.00230    0.08770    1.000
    O24      O        0.18770    0.01790    0.19660    1.000
    C33      C        0.76150    0.40530    0.80990    1.000
    C34      C        0.72460    0.37330    0.89780    1.000
    H17      H        0.64740    0.39750    0.92430    1.000
    C35      C        0.80230    0.30550    0.94620    1.000
    C36      C        0.91780    0.27010    0.90670    1.000
    H18      H        0.97150    0.22610    0.93950    1.000
    C37      C        0.95320    0.30010    0.81860    1.000
    H19      H        0.02970    0.27480    0.79200    1.000
    C38      C        0.87640    0.36680    0.77030    1.000
    H20      H        0.90080    0.38650    0.71100    1.000
    C39      C        0.67840    0.48240    0.76130    1.000
    C40      C        0.76210    0.26850    0.04180    1.000
    C41      C        0.27600    0.78260    0.95310    1.000
    C42      C        0.20210    0.85990    0.99180    1.000
    H21      H        0.13970    0.89280    0.95590    1.000
    C43      C        0.21960    0.88900    0.08340    1.000
    C44      C        0.30930    0.83570    0.13760    1.000
    H22      H        0.31980    0.85280    0.19950    1.000
    C45      C        0.38240    0.75840    0.10090    1.000
    H23      H        0.44280    0.72430    0.13770    1.000
    C46      C        0.36620    0.73080    0.00860    1.000
    H24      H        0.41520    0.67800    0.98400    1.000
    C47      C        0.25800    0.75360    0.85410    1.000
    C48      C        0.14420    0.97500    0.12590    1.000
    La4      La       0.49865    0.34236    0.19621    1.000
    O25      O        0.27480    0.47400    0.18860    1.000
    O26      O        0.43370    0.49710    0.29230    1.000
    O27      O        0.15930    0.78760    0.58290    1.000
    O28      O        0.34650    0.70450    0.57200    1.000
    O29      O        0.65490    0.30360    0.31950    1.000
    O30      O        0.84070    0.21570    0.31170    1.000
    O31      O        0.96210    0.99770    0.58770    1.000
    O32      O        0.81230    0.98210    0.69660    1.000
    C49      C        0.23850    0.59470    0.30990    1.000
    C50      C        0.27540    0.62670    0.39780    1.000
    H25      H        0.35260    0.60250    0.42430    1.000
    C51      C        0.19770    0.69450    0.44620    1.000
    C52      C        0.08220    0.72990    0.40670    1.000
    H26      H        0.02850    0.77390    0.43950    1.000
    C53      C        0.04680    0.69990    0.31860    1.000
    H27      H        0.97030    0.72520    0.29200    1.000
    C54      C        0.12360    0.63320    0.27030    1.000
    H28      H        0.09920    0.61350    0.21100    1.000
    C55      C        0.32160    0.51760    0.26130    1.000
    C56      C        0.23790    0.73150    0.54180    1.000
    C57      C        0.72400    0.21740    0.45310    1.000
    C58      C        0.79790    0.14010    0.49180    1.000
    H29      H        0.86030    0.10720    0.45590    1.000
    C59      C        0.78040    0.11100    0.58340    1.000
    C60      C        0.69070    0.16430    0.63760    1.000
    H30      H        0.68020    0.14720    0.69950    1.000
    C61      C        0.61760    0.24160    0.60090    1.000
    H31      H        0.55720    0.27570    0.63770    1.000
    C62      C        0.63380    0.26920    0.50860    1.000
    H32      H        0.58480    0.32200    0.48400    1.000
    C63      C        0.74200    0.24640    0.35410    1.000
    C64      C        0.85580    0.02500    0.62590    1.000
