# CIF file generated by openbabel 3.1.0, see https://openbabel.org
data_I
_chemical_name_common 'image0'
_cell_length_a 23.5728
_cell_length_b 6.4248
_cell_length_c 31.1276
_cell_angle_alpha 90
_cell_angle_beta 94.773
_cell_angle_gamma 90
_space_group_name_H-M_alt 'P 1'
_space_group_name_Hall 'P 1'
loop_
    _symmetry_equiv_pos_as_xyz
    x,y,z
loop_
    _atom_site_label
    _atom_site_type_symbol
    _atom_site_fract_x
    _atom_site_fract_y
    _atom_site_fract_z
    _atom_site_occupancy
    Zn1      Zn       0.30005    0.69690    0.67207    1.000
    O1       O        0.30130    0.77370    0.60550    1.000
    O2       O        0.58310    0.26970    0.37360    1.000
    O3       O        0.33740    0.58350    0.20200    1.000
    H1       H        0.33080    0.59190    0.22830    1.000
    Zn2      Zn       0.33566    0.39580    0.59272    1.000
    Zn3      Zn       0.19263    0.52361    0.18978    1.000
    Zn4      Zn       0.19722    0.05751    0.21089    1.000
    Zn5      Zn       0.32676    0.30872    0.18804    1.000
    C1       C        0.22470    0.43010    0.56230    1.000
    C2       C        0.17650    0.47360    0.52850    1.000
    C3       C        0.12590    0.54810    0.54060    1.000
    H2       H        0.12110    0.56330    0.56980    1.000
    C4       C        0.08160    0.60180    0.51060    1.000
    H3       H        0.04740    0.65060    0.51970    1.000
    C5       C        0.08830    0.58250    0.46630    1.000
    C6       C        0.14110    0.50620    0.45370    1.000
    C7       C        0.18340    0.45560    0.48530    1.000
    H4       H        0.21810    0.40740    0.47690    1.000
    C8       C        0.03990    0.63360    0.43540    1.000
    C9       C        0.01420    0.82270    0.43510    1.000
    H5       H        0.02770    0.92310    0.45490    1.000
    C10      C        0.96990    0.86840    0.40720    1.000
    H6       H        0.95250    0.99790    0.40860    1.000
    C11      C        0.94900    0.72410    0.37570    1.000
    C12      C        0.97510    0.53750    0.37610    1.000
    H7       H        0.96150    0.43700    0.35640    1.000
    C13      C        0.02080    0.48970    0.40440    1.000
    H8       H        0.03890    0.36170    0.40270    1.000
    C14      C        0.89930    0.77200    0.34480    1.000
    C15      C        0.15250    0.48480    0.40820    1.000
    C16      C        0.14420    0.65100    0.37960    1.000
    H9       H        0.13180    0.77950    0.38880    1.000
    C17      C        0.15570    0.61800    0.33480    1.000
    H10      H        0.15110    0.72340    0.31440    1.000
    C18      C        0.17390    0.41800    0.32430    1.000
    C19      C        0.18020    0.26500    0.35220    1.000
    H11      H        0.18960    0.13260    0.34280    1.000
    C20      C        0.17330    0.29500    0.39350    1.000
    H12      H        0.18240    0.18900    0.41320    1.000
    C21      C        0.18140    0.39200    0.27600    1.000
    C22      C        0.31400    0.94340    0.58700    1.000
    C23      C        0.31510    0.95680    0.53940    1.000
    C24      C        0.27010    0.88620    0.51310    1.000
    H13      H        0.23880    0.82860    0.52500    1.000
    C25      C        0.27050    0.89940    0.46860    1.000
    H14      H        0.23880    0.85520    0.45110    1.000
    C26      C        0.31780    0.97820    0.44950    1.000
    C27      C        0.36450    0.04840    0.47670    1.000
    C28      C        0.36210    0.03800    0.52080    1.000
    H15      H        0.39280    0.08670    0.53860    1.000
    C29      C        0.31440    0.99870    0.40170    1.000
    C30      C        0.29690    0.83730    0.37610    1.000
    H16      H        0.28660    0.71160    0.38800    1.000
    C31      C        0.29450    0.86170    0.33190    1.000
    H17      H        0.28290    0.75000    0.31430    1.000
    C32      C        0.30890    0.04710    0.31310    1.000
    C33      C        0.32840    0.20780    0.33980    1.000
    H18      H        0.34080    0.33110    0.32810    1.000
    C34      C        0.32950    0.18560    0.38350    1.000
    H19      H        0.34050    0.29730    0.40130    1.000
    C35      C        0.30580    0.07380    0.26510    1.000
    C36      C        0.41710    0.12870    0.45870    1.000
    C37      C        0.44730    0.00890    0.43140    1.000
    H20      H        0.43530    0.87390    0.42480    1.000
    C38      C        0.49470    0.08510    0.41380    1.000
    H21      H        0.51470    0.00170    0.39590    1.000
    C39      C        0.51250    0.28690    0.42280    1.000
    C40      C        0.48350    0.40090    0.45080    1.000
    H22      H        0.49610    0.53440    0.45810    1.000
    C41      C        0.43630    0.32510    0.46850    1.000
    H23      H        0.41730    0.40750    0.48730    1.000
    C42      C        0.56220    0.37260    0.40330    1.000
    O4       O        0.21410    0.42400    0.60060    1.000
    O5       O        0.27330    0.40910    0.54930    1.000
    O6       O        0.87930    0.95550    0.34400    1.000
    O7       O        0.87990    0.62760    0.32100    1.000
    O8       O        0.18450    0.52990    0.25230    1.000
    O9       O        0.19010    0.19400    0.26530    1.000
    O10      O        0.33400    0.09210    0.61010    1.000
    O11      O        0.27630    0.94760    0.24180    1.000
    O12      O        0.33320    0.22310    0.24990    1.000
    O13      O        0.59150    0.50740    0.42430    1.000
    O14      O        0.33740    0.45740    0.65590    1.000
    H24      H        0.37750    0.49060    0.66350    1.000
    O15      O        0.23890    0.27740    0.17650    1.000
    H25      H        0.23070    0.24600    0.14580    1.000
    O16      O        0.20830    0.80440    0.17180    1.000
    H26      H        0.19070    0.83010    0.14260    1.000
    Zn6      Zn       0.27173    0.68610    0.65034    1.000
    O17      O        0.27460    0.82660    0.59770    1.000
    O18      O        0.56450    0.36000    0.36270    1.000
    O19      O        0.29240    0.60800    0.19570    1.000
    H27      H        0.30930    0.57870    0.22020    1.000
    Zn7      Zn       0.69995    0.19690    0.82793    1.000
    O20      O        0.69870    0.27370    0.89450    1.000
    O21      O        0.41690    0.76970    0.12640    1.000
    O22      O        0.66260    0.08350    0.29800    1.000
    H28      H        0.66920    0.09190    0.27170    1.000
    Zn8      Zn       0.66434    0.89580    0.90728    1.000
    Zn9      Zn       0.80737    0.02361    0.31022    1.000
    Zn10     Zn       0.80278    0.55751    0.28911    1.000
    Zn11     Zn       0.67324    0.80872    0.31196    1.000
    C43      C        0.77530    0.93010    0.93770    1.000
    C44      C        0.82350    0.97360    0.97150    1.000
    C45      C        0.87410    0.04810    0.95940    1.000
    H29      H        0.87890    0.06330    0.93020    1.000
    C46      C        0.91840    0.10180    0.98940    1.000
    H30      H        0.95260    0.15060    0.98030    1.000
    C47      C        0.91170    0.08250    0.03370    1.000
    C48      C        0.85890    0.00620    0.04630    1.000
    C49      C        0.81660    0.95560    0.01470    1.000
    H31      H        0.78190    0.90740    0.02310    1.000
    C50      C        0.96010    0.13360    0.06460    1.000
    C51      C        0.98580    0.32270    0.06490    1.000
    H32      H        0.97230    0.42310    0.04510    1.000
    C52      C        0.03010    0.36840    0.09280    1.000
    H33      H        0.04750    0.49790    0.09140    1.000
    C53      C        0.05100    0.22410    0.12430    1.000
    C54      C        0.02490    0.03750    0.12390    1.000
    H34      H        0.03850    0.93700    0.14360    1.000
    C55      C        0.97920    0.98970    0.09560    1.000
    H35      H        0.96110    0.86170    0.09730    1.000
    C56      C        0.10070    0.27200    0.15520    1.000
    C57      C        0.84750    0.98480    0.09180    1.000
    C58      C        0.85580    0.15100    0.12040    1.000
    H36      H        0.86820    0.27950    0.11120    1.000
    C59      C        0.84430    0.11800    0.16520    1.000
    H37      H        0.84890    0.22340    0.18560    1.000
    C60      C        0.82610    0.91800    0.17570    1.000
    C61      C        0.81980    0.76500    0.14780    1.000
    H38      H        0.81040    0.63260    0.15720    1.000
    C62      C        0.82670    0.79500    0.10650    1.000
    H39      H        0.81760    0.68900    0.08680    1.000
    C63      C        0.81860    0.89200    0.22400    1.000
    C64      C        0.68600    0.44340    0.91300    1.000
    C65      C        0.68490    0.45680    0.96060    1.000
    C66      C        0.72990    0.38620    0.98690    1.000
    H40      H        0.76120    0.32860    0.97500    1.000
    C67      C        0.72950    0.39940    0.03140    1.000
    H41      H        0.76120    0.35520    0.04890    1.000
    C68      C        0.68220    0.47820    0.05050    1.000
    C69      C        0.63550    0.54840    0.02330    1.000
    C70      C        0.63790    0.53800    0.97920    1.000
    H42      H        0.60720    0.58670    0.96140    1.000
    C71      C        0.68560    0.49870    0.09830    1.000
    C72      C        0.70310    0.33730    0.12390    1.000
    H43      H        0.71340    0.21160    0.11200    1.000
    C73      C        0.70550    0.36170    0.16810    1.000
    H44      H        0.71710    0.25000    0.18570    1.000
    C74      C        0.69110    0.54710    0.18690    1.000
    C75      C        0.67160    0.70780    0.16020    1.000
    H45      H        0.65920    0.83110    0.17190    1.000
    C76      C        0.67050    0.68560    0.11650    1.000
    H46      H        0.65950    0.79730    0.09870    1.000
    C77      C        0.69420    0.57380    0.23490    1.000
    C78      C        0.58290    0.62870    0.04130    1.000
    C79      C        0.55270    0.50890    0.06860    1.000
    H47      H        0.56470    0.37390    0.07520    1.000
    C80      C        0.50530    0.58510    0.08620    1.000
    H48      H        0.48530    0.50170    0.10410    1.000
    C81      C        0.48750    0.78690    0.07720    1.000
    C82      C        0.51650    0.90090    0.04920    1.000
    H49      H        0.50390    0.03440    0.04190    1.000
    C83      C        0.56370    0.82510    0.03150    1.000
    H50      H        0.58270    0.90750    0.01270    1.000
    C84      C        0.43780    0.87260    0.09670    1.000
    O23      O        0.78590    0.92400    0.89940    1.000
    O24      O        0.72670    0.90910    0.95070    1.000
    O25      O        0.12070    0.45550    0.15600    1.000
    O26      O        0.12010    0.12760    0.17900    1.000
    O27      O        0.81550    0.02990    0.24770    1.000
    O28      O        0.80990    0.69400    0.23470    1.000
    O29      O        0.66600    0.59210    0.88990    1.000
    O30      O        0.72370    0.44760    0.25820    1.000
    O31      O        0.66680    0.72310    0.25010    1.000
    O32      O        0.40850    0.00740    0.07570    1.000
    O33      O        0.66260    0.95740    0.84410    1.000
    H51      H        0.62250    0.99060    0.83650    1.000
    O34      O        0.76110    0.77740    0.32350    1.000
    H52      H        0.76930    0.74600    0.35420    1.000
    O35      O        0.79170    0.30440    0.32820    1.000
    H53      H        0.80930    0.33010    0.35740    1.000
    Zn12     Zn       0.72827    0.18610    0.84966    1.000
    O36      O        0.72540    0.32660    0.90230    1.000
    O37      O        0.43550    0.86000    0.13730    1.000
    O38      O        0.70760    0.10800    0.30430    1.000
    H54      H        0.69070    0.07870    0.27980    1.000
    Zn13     Zn       0.69995    0.30310    0.32793    1.000
    O39      O        0.69870    0.22630    0.39450    1.000
    O40      O        0.41690    0.73030    0.62640    1.000
    O41      O        0.66260    0.41650    0.79800    1.000
    H55      H        0.66920    0.40810    0.77170    1.000
    Zn14     Zn       0.66434    0.60420    0.40728    1.000
    Zn15     Zn       0.80737    0.47639    0.81022    1.000
    Zn16     Zn       0.80278    0.94249    0.78911    1.000
    Zn17     Zn       0.67324    0.69128    0.81196    1.000
    C85      C        0.77530    0.56990    0.43770    1.000
    C86      C        0.82350    0.52640    0.47150    1.000
    C87      C        0.87410    0.45190    0.45940    1.000
    H56      H        0.87890    0.43670    0.43020    1.000
    C88      C        0.91840    0.39820    0.48940    1.000
    H57      H        0.95260    0.34940    0.48030    1.000
    C89      C        0.91170    0.41750    0.53370    1.000
    C90      C        0.85890    0.49380    0.54630    1.000
    C91      C        0.81660    0.54440    0.51470    1.000
    H58      H        0.78190    0.59260    0.52310    1.000
    C92      C        0.96010    0.36640    0.56460    1.000
    C93      C        0.98580    0.17730    0.56490    1.000
    H59      H        0.97230    0.07690    0.54510    1.000
    C94      C        0.03010    0.13160    0.59280    1.000
    H60      H        0.04750    0.00210    0.59140    1.000
    C95      C        0.05100    0.27590    0.62430    1.000
    C96      C        0.02490    0.46250    0.62390    1.000
    H61      H        0.03850    0.56300    0.64360    1.000
    C97      C        0.97920    0.51030    0.59560    1.000
    H62      H        0.96110    0.63830    0.59730    1.000
    C98      C        0.10070    0.22800    0.65520    1.000
    C99      C        0.84750    0.51520    0.59180    1.000
    C100     C        0.85580    0.34900    0.62040    1.000
    H63      H        0.86820    0.22050    0.61120    1.000
    C101     C        0.84430    0.38200    0.66520    1.000
    H64      H        0.84890    0.27660    0.68560    1.000
    C102     C        0.82610    0.58200    0.67570    1.000
    C103     C        0.81980    0.73500    0.64780    1.000
    H65      H        0.81040    0.86740    0.65720    1.000
    C104     C        0.82670    0.70500    0.60650    1.000
    H66      H        0.81760    0.81100    0.58680    1.000
    C105     C        0.81860    0.60800    0.72400    1.000
    C106     C        0.68600    0.05660    0.41300    1.000
    C107     C        0.68490    0.04320    0.46060    1.000
    C108     C        0.72990    0.11380    0.48690    1.000
    H67      H        0.76120    0.17140    0.47500    1.000
    C109     C        0.72950    0.10060    0.53140    1.000
    H68      H        0.76120    0.14480    0.54890    1.000
    C110     C        0.68220    0.02180    0.55050    1.000
    C111     C        0.63550    0.95160    0.52330    1.000
    C112     C        0.63790    0.96200    0.47920    1.000
    H69      H        0.60720    0.91330    0.46140    1.000
    C113     C        0.68560    0.00130    0.59830    1.000
    C114     C        0.70310    0.16270    0.62390    1.000
    H70      H        0.71340    0.28840    0.61200    1.000
    C115     C        0.70550    0.13830    0.66810    1.000
    H71      H        0.71710    0.25000    0.68570    1.000
    C116     C        0.69110    0.95290    0.68690    1.000
    C117     C        0.67160    0.79220    0.66020    1.000
    H72      H        0.65920    0.66890    0.67190    1.000
    C118     C        0.67050    0.81440    0.61650    1.000
    H73      H        0.65950    0.70270    0.59870    1.000
    C119     C        0.69420    0.92620    0.73490    1.000
    C120     C        0.58290    0.87130    0.54130    1.000
    C121     C        0.55270    0.99110    0.56860    1.000
    H74      H        0.56470    0.12610    0.57520    1.000
    C122     C        0.50530    0.91490    0.58620    1.000
    H75      H        0.48530    0.99830    0.60410    1.000
    C123     C        0.48750    0.71310    0.57720    1.000
    C124     C        0.51650    0.59910    0.54920    1.000
    H76      H        0.50390    0.46560    0.54190    1.000
    C125     C        0.56370    0.67490    0.53150    1.000
    H77      H        0.58270    0.59250    0.51270    1.000
    C126     C        0.43780    0.62740    0.59670    1.000
    O42      O        0.78590    0.57600    0.39940    1.000
    O43      O        0.72670    0.59090    0.45070    1.000
    O44      O        0.12070    0.04450    0.65600    1.000
    O45      O        0.12010    0.37240    0.67900    1.000
    O46      O        0.81550    0.47010    0.74770    1.000
    O47      O        0.80990    0.80600    0.73470    1.000
    O48      O        0.66600    0.90790    0.38990    1.000
    O49      O        0.72370    0.05240    0.75820    1.000
    O50      O        0.66680    0.77690    0.75010    1.000
    O51      O        0.40850    0.49260    0.57570    1.000
    O52      O        0.66260    0.54260    0.34410    1.000
    H78      H        0.62250    0.50940    0.33650    1.000
    O53      O        0.76110    0.72260    0.82350    1.000
    H79      H        0.76930    0.75400    0.85420    1.000
    O54      O        0.79170    0.19560    0.82820    1.000
    H80      H        0.80930    0.16990    0.85740    1.000
    Zn18     Zn       0.72827    0.31390    0.34966    1.000
    O55      O        0.72540    0.17340    0.40230    1.000
    O56      O        0.43550    0.64000    0.63730    1.000
    O57      O        0.70760    0.39200    0.80430    1.000
    H81      H        0.69070    0.42130    0.77980    1.000
    Zn19     Zn       0.30005    0.80310    0.17207    1.000
    O58      O        0.30130    0.72630    0.10550    1.000
    O59      O        0.58310    0.23030    0.87360    1.000
    O60      O        0.33740    0.91650    0.70200    1.000
    H82      H        0.33080    0.90810    0.72830    1.000
    Zn20     Zn       0.33566    0.10420    0.09272    1.000
    Zn21     Zn       0.19263    0.97639    0.68978    1.000
    Zn22     Zn       0.19722    0.44249    0.71089    1.000
    Zn23     Zn       0.32676    0.19128    0.68804    1.000
    C127     C        0.22470    0.06990    0.06230    1.000
    C128     C        0.17650    0.02640    0.02850    1.000
    C129     C        0.12590    0.95190    0.04060    1.000
    H83      H        0.12110    0.93670    0.06980    1.000
    C130     C        0.08160    0.89820    0.01060    1.000
    H84      H        0.04740    0.84940    0.01970    1.000
    C131     C        0.08830    0.91750    0.96630    1.000
    C132     C        0.14110    0.99380    0.95370    1.000
    C133     C        0.18340    0.04440    0.98530    1.000
    H85      H        0.21810    0.09260    0.97690    1.000
    C134     C        0.03990    0.86640    0.93540    1.000
    C135     C        0.01420    0.67730    0.93510    1.000
    H86      H        0.02770    0.57690    0.95490    1.000
    C136     C        0.96990    0.63160    0.90720    1.000
    H87      H        0.95250    0.50210    0.90860    1.000
    C137     C        0.94900    0.77590    0.87570    1.000
    C138     C        0.97510    0.96250    0.87610    1.000
    H88      H        0.96150    0.06300    0.85640    1.000
    C139     C        0.02080    0.01030    0.90440    1.000
    H89      H        0.03890    0.13830    0.90270    1.000
    C140     C        0.89930    0.72800    0.84480    1.000
    C141     C        0.15250    0.01520    0.90820    1.000
    C142     C        0.14420    0.84900    0.87960    1.000
    H90      H        0.13180    0.72050    0.88880    1.000
    C143     C        0.15570    0.88200    0.83480    1.000
    H91      H        0.15110    0.77660    0.81440    1.000
    C144     C        0.17390    0.08200    0.82430    1.000
    C145     C        0.18020    0.23500    0.85220    1.000
    H92      H        0.18960    0.36740    0.84280    1.000
    C146     C        0.17330    0.20500    0.89350    1.000
    H93      H        0.18240    0.31100    0.91320    1.000
    C147     C        0.18140    0.10800    0.77600    1.000
    C148     C        0.31400    0.55660    0.08700    1.000
    C149     C        0.31510    0.54320    0.03940    1.000
    C150     C        0.27010    0.61380    0.01310    1.000
    H94      H        0.23880    0.67140    0.02500    1.000
    C151     C        0.27050    0.60060    0.96860    1.000
    H95      H        0.23880    0.64480    0.95110    1.000
    C152     C        0.31780    0.52180    0.94950    1.000
    C153     C        0.36450    0.45160    0.97670    1.000
    C154     C        0.36210    0.46200    0.02080    1.000
    H96      H        0.39280    0.41330    0.03860    1.000
    C155     C        0.31440    0.50130    0.90170    1.000
    C156     C        0.29690    0.66270    0.87610    1.000
    H97      H        0.28660    0.78840    0.88800    1.000
    C157     C        0.29450    0.63830    0.83190    1.000
    H98      H        0.28290    0.75000    0.81430    1.000
    C158     C        0.30890    0.45290    0.81310    1.000
    C159     C        0.32840    0.29220    0.83980    1.000
    H99      H        0.34080    0.16890    0.82810    1.000
    C160     C        0.32950    0.31440    0.88350    1.000
    H100     H        0.34050    0.20270    0.90130    1.000
    C161     C        0.30580    0.42620    0.76510    1.000
    C162     C        0.41710    0.37130    0.95870    1.000
    C163     C        0.44730    0.49110    0.93140    1.000
    H101     H        0.43530    0.62610    0.92480    1.000
    C164     C        0.49470    0.41490    0.91380    1.000
    H102     H        0.51470    0.49830    0.89590    1.000
    C165     C        0.51250    0.21310    0.92280    1.000
    C166     C        0.48350    0.09910    0.95080    1.000
    H103     H        0.49610    0.96560    0.95810    1.000
    C167     C        0.43630    0.17490    0.96850    1.000
    H104     H        0.41730    0.09250    0.98730    1.000
    C168     C        0.56220    0.12740    0.90330    1.000
    O61      O        0.21410    0.07600    0.10060    1.000
    O62      O        0.27330    0.09090    0.04930    1.000
    O63      O        0.87930    0.54450    0.84400    1.000
    O64      O        0.87990    0.87240    0.82100    1.000
    O65      O        0.18450    0.97010    0.75230    1.000
    O66      O        0.19010    0.30600    0.76530    1.000
    O67      O        0.33400    0.40790    0.11010    1.000
    O68      O        0.27630    0.55240    0.74180    1.000
    O69      O        0.33320    0.27690    0.74990    1.000
    O70      O        0.59150    0.99260    0.92430    1.000
    O71      O        0.33740    0.04260    0.15590    1.000
    H105     H        0.37750    0.00940    0.16350    1.000
    O72      O        0.23890    0.22260    0.67650    1.000
    H106     H        0.23070    0.25400    0.64580    1.000
    O73      O        0.20830    0.69560    0.67180    1.000
    H107     H        0.19070    0.66990    0.64260    1.000
    Zn24     Zn       0.27173    0.81390    0.15034    1.000
    O74      O        0.27460    0.67340    0.09770    1.000
    O75      O        0.56450    0.14000    0.86270    1.000
    O76      O        0.29240    0.89200    0.69570    1.000
    H108     H        0.30930    0.92130    0.72020    1.000
