# CIF file generated by openbabel 3.1.0, see https://openbabel.org
data_I
_chemical_name_common 'image0'
_cell_length_a 25.723
_cell_length_b 21.974
_cell_length_c 31.243
_cell_angle_alpha 90
_cell_angle_beta 107.024
_cell_angle_gamma 90
_space_group_name_H-M_alt 'P 1'
_space_group_name_Hall 'P 1'
loop_
    _symmetry_equiv_pos_as_xyz
    x,y,z
loop_
    _atom_site_label
    _atom_site_type_symbol
    _atom_site_fract_x
    _atom_site_fract_y
    _atom_site_fract_z
    _atom_site_occupancy
    C1       C        0.96040    0.96310    0.40860    1.000
    C2       C        0.92830    0.91560    0.42570    1.000
    C3       C        0.92640    0.91640    0.46880    1.000
    C4       C        0.89680    0.87180    0.48230    1.000
    C5       C        0.86780    0.82650    0.45310    1.000
    C6       C        0.87040    0.82730    0.41050    1.000
    C7       C        0.90120    0.86990    0.39180    1.000
    C8       C        0.89120    0.87420    0.52960    1.000
    C9       C        0.83140    0.76770    0.33740    1.000
    C10      C        0.85330    0.77880    0.27240    1.000
    C11      C        0.78720    0.71700    0.27710    1.000
    C12      C        0.87670    0.81210    0.20450    1.000
    C13      C        0.85650    0.76410    0.17320    1.000
    C14      C        0.85430    0.77350    0.12930    1.000
    C15      C        0.87330    0.82660    0.11280    1.000
    C16      C        0.89470    0.87330    0.14560    1.000
    C17      C        0.89630    0.86610    0.19070    1.000
    C18      C        0.91570    0.93200    0.13270    1.000
    C19      C        0.83480    0.72320    0.09630    1.000
    C20      C        0.70220    0.65200    0.26500    1.000
    C21      C        0.69730    0.64730    0.30810    1.000
    C22      C        0.64920    0.62470    0.31290    1.000
    C23      C        0.60590    0.60360    0.27770    1.000
    C24      C        0.61400    0.60700    0.23520    1.000
    C25      C        0.66020    0.62820    0.22750    1.000
    C26      C        0.56830    0.58340    0.19530    1.000
    C27      C        0.63910    0.62040    0.35960    1.000
    C28      C        0.11310    0.14940    0.35140    1.000
    C29      C        0.11550    0.15670    0.30460    1.000
    C30      C        0.07960    0.12420    0.27270    1.000
    C31      C        0.08410    0.12830    0.22800    1.000
    C32      C        0.12250    0.16710    0.21970    1.000
    C33      C        0.15820    0.19940    0.25310    1.000
    C34      C        0.15470    0.19600    0.29870    1.000
    C35      C        0.04530    0.09340    0.19060    1.000
    C36      C        0.23500    0.27320    0.26430    1.000
    C37      C        0.30390    0.33620    0.26120    1.000
    C38      C        0.28820    0.31880    0.32800    1.000
    C39      C        0.32830    0.37120    0.19360    1.000
    C40      C        0.28800    0.34490    0.15780    1.000
    C41      C        0.28610    0.35970    0.11270    1.000
    C42      C        0.32490    0.39460    0.10480    1.000
    C43      C        0.36680    0.41870    0.14000    1.000
    C44      C        0.36880    0.40810    0.18360    1.000
    C45      C        0.40870    0.46230    0.13250    1.000
    C46      C        0.23940    0.33710    0.07690    1.000
    C47      C        0.33650    0.36720    0.40030    1.000
    C48      C        0.37680    0.39930    0.38830    1.000
    C49      C        0.41270    0.43450    0.41980    1.000
    C50      C        0.40930    0.44010    0.46440    1.000
    C51      C        0.36870    0.40790    0.47540    1.000
    C52      C        0.33230    0.37090    0.44480    1.000
    C53      C        0.36490    0.41150    0.52260    1.000
    C54      C        0.45560    0.47040    0.40650    1.000
    N1       N        0.79290    0.72670    0.32110    1.000
    N2       N        0.81510    0.73910    0.25050    1.000
    N3       N        0.86420    0.79600    0.31620    1.000
    N4       N        0.74770    0.67620    0.25310    1.000
    N5       N        0.88510    0.80850    0.25090    1.000
    N6       N        0.83910    0.78040    0.38000    1.000
    N7       N        0.24470    0.28200    0.30900    1.000
    N8       N        0.31990    0.34420    0.30530    1.000
    N9       N        0.26090    0.30170    0.23740    1.000
    N10      N        0.29730    0.32840    0.37150    1.000
    N11      N        0.33560    0.36420    0.23980    1.000
    N12      N        0.19390    0.23640    0.24020    1.000
    O1       O        0.96600    0.95980    0.37046    1.000
    O2       O        0.98100    0.00710    0.43488    1.000
    O3       O        0.91030    0.91900    0.55279    1.000
    O4       O        0.86820    0.82930    0.54130    1.000
    O5       O        0.92830    0.97430    0.16030    1.000
    O6       O        0.92300    0.93780    0.09395    1.000
    O7       O        0.82780    0.73200    0.05560    1.000
    O8       O        0.82420    0.67160    0.10900    1.000
    O9       O        0.57420    0.58660    0.15770    1.000
    O10      O        0.52650    0.56110    0.20191    1.000
    O11      O        0.59360    0.61020    0.36300    1.000
    O12      O        0.68200    0.62900    0.39360    1.000
    O13      O        0.06420    0.13320    0.35640    1.000
    O14      O        0.14650    0.17340    0.38420    1.000
    O15      O        0.04670    0.10250    0.15190    1.000
    O16      O        0.01220    0.05770    0.19889    1.000
    O17      O        0.43700    0.49180    0.16430    1.000
    O18      O        0.41280    0.46940    0.09448    1.000
    O19      O        0.24330    0.34450    0.03650    1.000
    O20      O        0.19860    0.31470    0.08320    1.000
    O21      O        0.32980    0.37460    0.53190    1.000
    O22      O        0.38960    0.45170    0.54837    1.000
    O23      O        0.48590    0.50650    0.43472    1.000
    O24      O        0.46050    0.46570    0.36914    1.000
    Eu1      Eu       0.96458    0.04289    0.11501    1.000
    Eu2      Eu       0.02040    0.05365    0.38077    1.000
    Eu3      Eu       0.80727    0.62523    0.03538    1.000
    Na1      Na       0.99735    0.98559    0.25152    1.000
    O25      O        0.96920    0.90080    0.29420    1.000
    O26      O        0.92770    0.93240    0.28290    1.000
    C55      C        0.53960    0.46310    0.09140    1.000
    C56      C        0.57170    0.41560    0.07430    1.000
    C57      C        0.57360    0.41640    0.03120    1.000
    C58      C        0.60320    0.37180    0.01770    1.000
    C59      C        0.63220    0.32650    0.04690    1.000
    C60      C        0.62960    0.32730    0.08950    1.000
    C61      C        0.59880    0.36990    0.10820    1.000
    C62      C        0.60880    0.37420    0.97040    1.000
    C63      C        0.66860    0.26770    0.16260    1.000
    C64      C        0.64670    0.27880    0.22760    1.000
    C65      C        0.71280    0.21700    0.22290    1.000
    C66      C        0.62330    0.31210    0.29550    1.000
    C67      C        0.64350    0.26410    0.32680    1.000
    C68      C        0.64570    0.27350    0.37070    1.000
    C69      C        0.62670    0.32660    0.38720    1.000
    C70      C        0.60530    0.37330    0.35440    1.000
    C71      C        0.60370    0.36610    0.30930    1.000
    C72      C        0.58430    0.43200    0.36730    1.000
    C73      C        0.66520    0.22320    0.40370    1.000
    C74      C        0.79780    0.15200    0.23500    1.000
    C75      C        0.80270    0.14730    0.19190    1.000
    C76      C        0.85080    0.12470    0.18710    1.000
    C77      C        0.89410    0.10360    0.22230    1.000
    C78      C        0.88600    0.10700    0.26480    1.000
    C79      C        0.83980    0.12820    0.27250    1.000
    C80      C        0.93170    0.08340    0.30470    1.000
    C81      C        0.86090    0.12040    0.14040    1.000
    C82      C        0.38690    0.64940    0.14860    1.000
    C83      C        0.38450    0.65670    0.19540    1.000
    C84      C        0.42040    0.62420    0.22730    1.000
    C85      C        0.41590    0.62830    0.27200    1.000
    C86      C        0.37750    0.66710    0.28030    1.000
    C87      C        0.34180    0.69940    0.24690    1.000
    C88      C        0.34530    0.69600    0.20130    1.000
    C89      C        0.45470    0.59340    0.30940    1.000
    C90      C        0.26500    0.77320    0.23570    1.000
    C91      C        0.19610    0.83620    0.23880    1.000
    C92      C        0.21180    0.81880    0.17200    1.000
    C93      C        0.17170    0.87120    0.30640    1.000
    C94      C        0.21200    0.84490    0.34220    1.000
    C95      C        0.21390    0.85970    0.38730    1.000
    C96      C        0.17510    0.89460    0.39520    1.000
    C97      C        0.13320    0.91870    0.36000    1.000
    C98      C        0.13120    0.90810    0.31640    1.000
    C99      C        0.09130    0.96230    0.36750    1.000
    C100     C        0.26060    0.83710    0.42310    1.000
    C101     C        0.16350    0.86720    0.09970    1.000
    C102     C        0.12320    0.89930    0.11170    1.000
    C103     C        0.08730    0.93450    0.08020    1.000
    C104     C        0.09070    0.94010    0.03560    1.000
    C105     C        0.13130    0.90790    0.02460    1.000
    C106     C        0.16770    0.87090    0.05520    1.000
    C107     C        0.13510    0.91150    0.97740    1.000
    C108     C        0.04440    0.97040    0.09350    1.000
    N13      N        0.70710    0.22670    0.17890    1.000
    N14      N        0.68490    0.23910    0.24950    1.000
    N15      N        0.63580    0.29600    0.18380    1.000
    N16      N        0.75230    0.17620    0.24690    1.000
    N17      N        0.61490    0.30850    0.24910    1.000
    N18      N        0.66090    0.28040    0.12000    1.000
    N19      N        0.25530    0.78200    0.19100    1.000
    N20      N        0.18010    0.84420    0.19470    1.000
    N21      N        0.23910    0.80170    0.26260    1.000
    N22      N        0.20270    0.82840    0.12850    1.000
    N23      N        0.16440    0.86420    0.26020    1.000
    N24      N        0.30610    0.73640    0.25980    1.000
    O27      O        0.53400    0.45980    0.12954    1.000
    O28      O        0.51900    0.50710    0.06512    1.000
    O29      O        0.58970    0.41900    0.94721    1.000
    O30      O        0.63180    0.32930    0.95870    1.000
    O31      O        0.57170    0.47430    0.33970    1.000
    O32      O        0.57700    0.43780    0.40605    1.000
    O33      O        0.67220    0.23200    0.44440    1.000
    O34      O        0.67580    0.17160    0.39100    1.000
    O35      O        0.92580    0.08660    0.34230    1.000
    O36      O        0.97350    0.06110    0.29809    1.000
    O37      O        0.90640    0.11020    0.13700    1.000
    O38      O        0.81800    0.12900    0.10640    1.000
    O39      O        0.43580    0.63320    0.14360    1.000
    O40      O        0.35350    0.67340    0.11580    1.000
    O41      O        0.45330    0.60250    0.34810    1.000
    O42      O        0.48780    0.55770    0.30111    1.000
    O43      O        0.06300    0.99180    0.33570    1.000
    O44      O        0.08720    0.96940    0.40552    1.000
    O45      O        0.25670    0.84450    0.46350    1.000
    O46      O        0.30140    0.81470    0.41680    1.000
    O47      O        0.17020    0.87460    0.96810    1.000
    O48      O        0.11040    0.95170    0.95163    1.000
    O49      O        0.01410    0.00650    0.06528    1.000
    O50      O        0.03950    0.96570    0.13086    1.000
    Eu4      Eu       0.53542    0.54289    0.38499    1.000
    Eu5      Eu       0.47960    0.55365    0.11923    1.000
    Eu6      Eu       0.69273    0.12523    0.46462    1.000
    Na2      Na       0.50265    0.48559    0.24848    1.000
    O51      O        0.53080    0.40080    0.20580    1.000
    O52      O        0.57230    0.43240    0.21710    1.000
    C109     C        0.03960    0.03690    0.59140    1.000
    C110     C        0.07170    0.08440    0.57430    1.000
    C111     C        0.07360    0.08360    0.53120    1.000
    C112     C        0.10320    0.12820    0.51770    1.000
    C113     C        0.13220    0.17350    0.54690    1.000
    C114     C        0.12960    0.17270    0.58950    1.000
    C115     C        0.09880    0.13010    0.60820    1.000
    C116     C        0.10880    0.12580    0.47040    1.000
    C117     C        0.16860    0.23230    0.66260    1.000
    C118     C        0.14670    0.22120    0.72760    1.000
    C119     C        0.21280    0.28300    0.72290    1.000
    C120     C        0.12330    0.18790    0.79550    1.000
    C121     C        0.14350    0.23590    0.82680    1.000
    C122     C        0.14570    0.22650    0.87070    1.000
    C123     C        0.12670    0.17340    0.88720    1.000
    C124     C        0.10530    0.12670    0.85440    1.000
    C125     C        0.10370    0.13390    0.80930    1.000
    C126     C        0.08430    0.06800    0.86730    1.000
    C127     C        0.16520    0.27680    0.90370    1.000
    C128     C        0.29780    0.34800    0.73500    1.000
    C129     C        0.30270    0.35270    0.69190    1.000
    C130     C        0.35080    0.37530    0.68710    1.000
    C131     C        0.39410    0.39640    0.72230    1.000
    C132     C        0.38600    0.39300    0.76480    1.000
    C133     C        0.33980    0.37180    0.77250    1.000
    C134     C        0.43170    0.41660    0.80470    1.000
    C135     C        0.36090    0.37960    0.64040    1.000
    C136     C        0.88690    0.85060    0.64860    1.000
    C137     C        0.88450    0.84330    0.69540    1.000
    C138     C        0.92040    0.87580    0.72730    1.000
    C139     C        0.91590    0.87170    0.77200    1.000
    C140     C        0.87750    0.83290    0.78030    1.000
    C141     C        0.84180    0.80060    0.74690    1.000
    C142     C        0.84530    0.80400    0.70130    1.000
    C143     C        0.95470    0.90660    0.80940    1.000
    C144     C        0.76500    0.72680    0.73570    1.000
    C145     C        0.69610    0.66380    0.73880    1.000
    C146     C        0.71180    0.68120    0.67200    1.000
    C147     C        0.67170    0.62880    0.80640    1.000
    C148     C        0.71200    0.65510    0.84220    1.000
    C149     C        0.71390    0.64030    0.88730    1.000
    C150     C        0.67510    0.60540    0.89520    1.000
    C151     C        0.63320    0.58130    0.86000    1.000
    C152     C        0.63120    0.59190    0.81640    1.000
    C153     C        0.59130    0.53770    0.86750    1.000
    C154     C        0.76060    0.66290    0.92310    1.000
    C155     C        0.66350    0.63280    0.59970    1.000
    C156     C        0.62320    0.60070    0.61170    1.000
    C157     C        0.58730    0.56550    0.58020    1.000
    C158     C        0.59070    0.55990    0.53560    1.000
    C159     C        0.63130    0.59210    0.52460    1.000
    C160     C        0.66770    0.62910    0.55520    1.000
    C161     C        0.63510    0.58850    0.47740    1.000
    C162     C        0.54440    0.52960    0.59350    1.000
    N25      N        0.20710    0.27330    0.67890    1.000
    N26      N        0.18490    0.26090    0.74950    1.000
    N27      N        0.13580    0.20400    0.68380    1.000
    N28      N        0.25230    0.32380    0.74690    1.000
    N29      N        0.11490    0.19150    0.74910    1.000
    N30      N        0.16090    0.21960    0.62000    1.000
    N31      N        0.75530    0.71800    0.69100    1.000
    N32      N        0.68010    0.65580    0.69470    1.000
    N33      N        0.73910    0.69830    0.76260    1.000
    N34      N        0.70270    0.67160    0.62850    1.000
    N35      N        0.66440    0.63580    0.76020    1.000
    N36      N        0.80610    0.76360    0.75980    1.000
    O53      O        0.03400    0.04020    0.62954    1.000
    O54      O        0.01900    0.99290    0.56512    1.000
    O55      O        0.08970    0.08100    0.44721    1.000
    O56      O        0.13180    0.17070    0.45870    1.000
    O57      O        0.07170    0.02570    0.83970    1.000
    O58      O        0.07700    0.06220    0.90605    1.000
    O59      O        0.17220    0.26800    0.94440    1.000
    O60      O        0.17580    0.32840    0.89100    1.000
    O61      O        0.42580    0.41340    0.84230    1.000
    O62      O        0.47350    0.43890    0.79809    1.000
    O63      O        0.40640    0.38980    0.63700    1.000
    O64      O        0.31800    0.37100    0.60640    1.000
    O65      O        0.93580    0.86680    0.64360    1.000
    O66      O        0.85350    0.82660    0.61580    1.000
    O67      O        0.95330    0.89750    0.84810    1.000
    O68      O        0.98780    0.94230    0.80111    1.000
    O69      O        0.56300    0.50820    0.83570    1.000
    O70      O        0.58720    0.53060    0.90552    1.000
    O71      O        0.75670    0.65550    0.96350    1.000
    O72      O        0.80140    0.68530    0.91680    1.000
    O73      O        0.67020    0.62540    0.46810    1.000
    O74      O        0.61040    0.54830    0.45163    1.000
    O75      O        0.51410    0.49350    0.56528    1.000
    O76      O        0.53950    0.53430    0.63086    1.000
    Eu7      Eu       0.03542    0.95711    0.88499    1.000
    Eu8      Eu       0.97960    0.94635    0.61923    1.000
    Eu9      Eu       0.19273    0.37477    0.96462    1.000
    Na3      Na       0.00265    0.01441    0.74848    1.000
    O77      O        0.03080    0.09920    0.70580    1.000
    O78      O        0.07230    0.06760    0.71710    1.000
    C163     C        0.46040    0.53690    0.90860    1.000
    C164     C        0.42830    0.58440    0.92570    1.000
    C165     C        0.42640    0.58360    0.96880    1.000
    C166     C        0.39680    0.62820    0.98230    1.000
    C167     C        0.36780    0.67350    0.95310    1.000
    C168     C        0.37040    0.67270    0.91050    1.000
    C169     C        0.40120    0.63010    0.89180    1.000
    C170     C        0.39120    0.62580    0.02960    1.000
    C171     C        0.33140    0.73230    0.83740    1.000
    C172     C        0.35330    0.72120    0.77240    1.000
    C173     C        0.28720    0.78300    0.77710    1.000
    C174     C        0.37670    0.68790    0.70450    1.000
    C175     C        0.35650    0.73590    0.67320    1.000
    C176     C        0.35430    0.72650    0.62930    1.000
    C177     C        0.37330    0.67340    0.61280    1.000
    C178     C        0.39470    0.62670    0.64560    1.000
    C179     C        0.39630    0.63390    0.69070    1.000
    C180     C        0.41570    0.56800    0.63270    1.000
    C181     C        0.33480    0.77680    0.59630    1.000
    C182     C        0.20220    0.84800    0.76500    1.000
    C183     C        0.19730    0.85270    0.80810    1.000
    C184     C        0.14920    0.87530    0.81290    1.000
    C185     C        0.10590    0.89640    0.77770    1.000
    C186     C        0.11400    0.89300    0.73520    1.000
    C187     C        0.16020    0.87180    0.72750    1.000
    C188     C        0.06830    0.91660    0.69530    1.000
    C189     C        0.13910    0.87960    0.85960    1.000
    C190     C        0.61310    0.35060    0.85140    1.000
    C191     C        0.61550    0.34330    0.80460    1.000
    C192     C        0.57960    0.37580    0.77270    1.000
    C193     C        0.58410    0.37170    0.72800    1.000
    C194     C        0.62250    0.33290    0.71970    1.000
    C195     C        0.65820    0.30060    0.75310    1.000
    C196     C        0.65470    0.30400    0.79870    1.000
    C197     C        0.54530    0.40660    0.69060    1.000
    C198     C        0.73500    0.22680    0.76430    1.000
    C199     C        0.80390    0.16380    0.76120    1.000
    C200     C        0.78820    0.18120    0.82800    1.000
    C201     C        0.82830    0.12880    0.69360    1.000
    C202     C        0.78800    0.15510    0.65780    1.000
    C203     C        0.78610    0.14030    0.61270    1.000
    C204     C        0.82490    0.10540    0.60480    1.000
    C205     C        0.86680    0.08130    0.64000    1.000
    C206     C        0.86880    0.09190    0.68360    1.000
    C207     C        0.90870    0.03770    0.63250    1.000
    C208     C        0.73940    0.16290    0.57690    1.000
    C209     C        0.83650    0.13280    0.90030    1.000
    C210     C        0.87680    0.10070    0.88830    1.000
    C211     C        0.91270    0.06550    0.91980    1.000
    C212     C        0.90930    0.05990    0.96440    1.000
    C213     C        0.86870    0.09210    0.97540    1.000
    C214     C        0.83230    0.12910    0.94480    1.000
    C215     C        0.86490    0.08850    0.02260    1.000
    C216     C        0.95560    0.02960    0.90650    1.000
    N37      N        0.29290    0.77330    0.82110    1.000
    N38      N        0.31510    0.76090    0.75050    1.000
    N39      N        0.36420    0.70400    0.81620    1.000
    N40      N        0.24770    0.82380    0.75310    1.000
    N41      N        0.38510    0.69150    0.75090    1.000
    N42      N        0.33910    0.71960    0.88000    1.000
    N43      N        0.74470    0.21800    0.80900    1.000
    N44      N        0.81990    0.15580    0.80530    1.000
    N45      N        0.76090    0.19830    0.73740    1.000
    N46      N        0.79730    0.17160    0.87150    1.000
    N47      N        0.83560    0.13580    0.73980    1.000
    N48      N        0.69390    0.26360    0.74020    1.000
    O79      O        0.46600    0.54020    0.87046    1.000
    O80      O        0.48100    0.49290    0.93488    1.000
    O81      O        0.41030    0.58100    0.05279    1.000
    O82      O        0.36820    0.67070    0.04130    1.000
    O83      O        0.42830    0.52570    0.66030    1.000
    O84      O        0.42300    0.56220    0.59395    1.000
    O85      O        0.32780    0.76800    0.55560    1.000
    O86      O        0.32420    0.82840    0.60900    1.000
    O87      O        0.07420    0.91340    0.65770    1.000
    O88      O        0.02650    0.93890    0.70191    1.000
    O89      O        0.09360    0.88980    0.86300    1.000
    O90      O        0.18200    0.87100    0.89360    1.000
    O91      O        0.56420    0.36680    0.85640    1.000
    O92      O        0.64650    0.32660    0.88420    1.000
    O93      O        0.54670    0.39750    0.65190    1.000
    O94      O        0.51220    0.44230    0.69889    1.000
    O95      O        0.93700    0.00820    0.66430    1.000
    O96      O        0.91280    0.03060    0.59448    1.000
    O97      O        0.74330    0.15550    0.53650    1.000
    O98      O        0.69860    0.18530    0.58320    1.000
    O99      O        0.82980    0.12540    0.03190    1.000
    O100     O        0.88960    0.04830    0.04837    1.000
    O101     O        0.98590    0.99350    0.93472    1.000
    O102     O        0.96050    0.03430    0.86914    1.000
    Eu10     Eu       0.46458    0.45711    0.61501    1.000
    Eu11     Eu       0.52040    0.44635    0.88077    1.000
    Eu12     Eu       0.30727    0.87477    0.53538    1.000
    Na4      Na       0.49735    0.51441    0.75152    1.000
    O103     O        0.46920    0.59920    0.79420    1.000
    O104     O        0.42770    0.56760    0.78290    1.000
