# CIF file generated by openbabel 3.1.0, see https://openbabel.org
data_I
_chemical_name_common 'JOSNAG01_clean'
_cell_length_a 9.249
_cell_length_b 9.807
_cell_length_c 10.73
_cell_angle_alpha 68
_cell_angle_beta 84.47
_cell_angle_gamma 62.05
_space_group_name_H-M_alt 'P 1'
_space_group_name_Hall 'P 1'
loop_
    _symmetry_equiv_pos_as_xyz
    x,y,z
loop_
    _atom_site_label
    _atom_site_type_symbol
    _atom_site_fract_x
    _atom_site_fract_y
    _atom_site_fract_z
    _atom_site_occupancy
    La1      La       0.22478    0.04374    0.98423    1.000
    La2      La       0.77522    0.95626    0.01577    1.000
    H1       H        0.36230    0.12590    0.37180    1.000
    H2       H        0.53380    0.97560    0.37730    1.000
    H3       H        0.63280    0.16210    0.24610    1.000
    H4       H        0.57640    0.18910    0.38120    1.000
    H5       H        0.32890    0.42470    0.26480    1.000
    H6       H        0.38220    0.39670    0.12920    1.000
    H7       H        0.60090    0.45030    0.13370    1.000
    H8       H        0.56560    0.46030    0.27640    1.000
    H9       H        0.83180    0.09610    0.65100    1.000
    H10      H        0.88600    0.22920    0.56050    1.000
    H11      H        0.08660    0.88170    0.62690    1.000
    H12      H        0.13370    0.01780    0.53120    1.000
    H13      H        0.63770    0.87410    0.62820    1.000
    H14      H        0.46620    0.02440    0.62270    1.000
    H15      H        0.36720    0.83790    0.75390    1.000
    H16      H        0.42360    0.81090    0.61880    1.000
    H17      H        0.67110    0.57530    0.73520    1.000
    H18      H        0.61780    0.60330    0.87080    1.000
    H19      H        0.39910    0.54970    0.86630    1.000
    H20      H        0.43440    0.53970    0.72360    1.000
    H21      H        0.16820    0.90390    0.34900    1.000
    H22      H        0.11400    0.77080    0.43950    1.000
    H23      H        0.91340    0.11830    0.37310    1.000
    H24      H        0.86630    0.98220    0.46880    1.000
    C1       C        0.40040    0.08780    0.19500    1.000
    C2       C        0.45640    0.08860    0.32150    1.000
    C3       C        0.53780    0.20020    0.29530    1.000
    C4       C        0.42260    0.38410    0.21510    1.000
    C5       C        0.51410    0.48540    0.19060    1.000
    C6       C        0.40790    0.67140    0.12530    1.000
    C7       C        0.01370    0.09380    0.74860    1.000
    C8       C        0.92580    0.11590    0.62520    1.000
    C9       C        0.04240    0.99430    0.56020    1.000
    C10      C        0.59960    0.91220    0.80500    1.000
    C11      C        0.54360    0.91140    0.67850    1.000
    C12      C        0.46220    0.79980    0.70470    1.000
    C13      C        0.57740    0.61590    0.78490    1.000
    C14      C        0.48590    0.51460    0.80940    1.000
    C15      C        0.59210    0.32860    0.87470    1.000
    C16      C        0.98630    0.90620    0.25140    1.000
    C17      C        0.07420    0.88410    0.37480    1.000
    C18      C        0.95760    0.00570    0.43980    1.000
    O1       O        0.25190    0.12230    0.17640    1.000
    O2       O        0.50050    0.05100    0.10990    1.000
    O3       O        0.42170    0.76590    0.17270    1.000
    O4       O        0.30810    0.73370    0.02250    1.000
    O5       O        0.12740    0.13360    0.73380    1.000
    O6       O        0.97770    0.03170    0.86550    1.000
    O7       O        0.74810    0.87770    0.82360    1.000
    O8       O        0.49950    0.94900    0.89010    1.000
    O9       O        0.57830    0.23410    0.82730    1.000
    O10      O        0.69190    0.26630    0.97750    1.000
    O11      O        0.87260    0.86640    0.26620    1.000
    O12      O        0.02230    0.96830    0.13450    1.000
