# CIF file generated by openbabel 3.1.0, see https://openbabel.org
data_I
_chemical_name_common 'image0'
_cell_length_a 8.3328
_cell_length_b 17.5089
_cell_length_c 7.9384
_cell_angle_alpha 90
_cell_angle_beta 109.247
_cell_angle_gamma 90
_space_group_name_H-M_alt 'P 1'
_space_group_name_Hall 'P 1'
loop_
    _symmetry_equiv_pos_as_xyz
    x,y,z
loop_
    _atom_site_label
    _atom_site_type_symbol
    _atom_site_fract_x
    _atom_site_fract_y
    _atom_site_fract_z
    _atom_site_occupancy
    Sm1      Sm       0.28088    0.52218    0.25680    1.000
    N1       N        0.96800    0.76510    0.11000    1.000
    N2       N        0.87630    0.82910    0.07790    1.000
    H1       H        0.90930    0.87260    0.12780    1.000
    O1       O        0.08520    0.61860    0.12480    1.000
    O2       O        0.84820    0.58110    0.92290    1.000
    O3       O        0.61500    0.93590    0.99780    1.000
    O4       O        0.46920    0.86820    0.76340    1.000
    O5       O        0.52130    0.45800    0.20460    1.000
    O6       O        0.70010    0.45710    0.04710    1.000
    C1       C        0.93890    0.62970    0.01760    1.000
    C2       C        0.87290    0.70850    0.00980    1.000
    C3       C        0.71520    0.73900    0.90990    1.000
    H2       H        0.62420    0.71310    0.83010    1.000
    C4       C        0.72270    0.81480    0.95410    1.000
    C5       C        0.59370    0.87650    0.90220    1.000
    C6       C        0.56520    0.47490    0.07200    1.000
    Sm2      Sm       0.71912    0.02218    0.24320    1.000
    N3       N        0.03200    0.26510    0.39000    1.000
    N4       N        0.12370    0.32910    0.42210    1.000
    H3       H        0.09070    0.37260    0.37220    1.000
    O7       O        0.91480    0.11860    0.37520    1.000
    O8       O        0.15180    0.08110    0.57710    1.000
    O9       O        0.38500    0.43590    0.50220    1.000
    O10      O        0.53080    0.36820    0.73660    1.000
    O11      O        0.47870    0.95800    0.29540    1.000
    O12      O        0.29990    0.95710    0.45290    1.000
    C7       C        0.06110    0.12970    0.48240    1.000
    C8       C        0.12710    0.20850    0.49020    1.000
    C9       C        0.28480    0.23900    0.59010    1.000
    H4       H        0.37580    0.21310    0.66990    1.000
    C10      C        0.27730    0.31480    0.54590    1.000
    C11      C        0.40630    0.37650    0.59780    1.000
    C12      C        0.43480    0.97490    0.42800    1.000
    Sm3      Sm       0.71912    0.47782    0.74320    1.000
    N5       N        0.03200    0.23490    0.89000    1.000
    N6       N        0.12370    0.17090    0.92210    1.000
    H5       H        0.09070    0.12740    0.87220    1.000
    O13      O        0.91480    0.38140    0.87520    1.000
    O14      O        0.15180    0.41890    0.07710    1.000
    O15      O        0.38500    0.06410    0.00220    1.000
    O16      O        0.53080    0.13180    0.23660    1.000
    O17      O        0.47870    0.54200    0.79540    1.000
    O18      O        0.29990    0.54290    0.95290    1.000
    C13      C        0.06110    0.37030    0.98240    1.000
    C14      C        0.12710    0.29150    0.99020    1.000
    C15      C        0.28480    0.26100    0.09010    1.000
    H6       H        0.37580    0.28690    0.16990    1.000
    C16      C        0.27730    0.18520    0.04590    1.000
    C17      C        0.40630    0.12350    0.09780    1.000
    C18      C        0.43480    0.52510    0.92800    1.000
    Sm4      Sm       0.28088    0.97782    0.75680    1.000
    N7       N        0.96800    0.73490    0.61000    1.000
    N8       N        0.87630    0.67090    0.57790    1.000
    H7       H        0.90930    0.62740    0.62780    1.000
    O19      O        0.08520    0.88140    0.62480    1.000
    O20      O        0.84820    0.91890    0.42290    1.000
    O21      O        0.61500    0.56410    0.49780    1.000
    O22      O        0.46920    0.63180    0.26340    1.000
    O23      O        0.52130    0.04200    0.70460    1.000
    O24      O        0.70010    0.04290    0.54710    1.000
    C19      C        0.93890    0.87030    0.51760    1.000
    C20      C        0.87290    0.79150    0.50980    1.000
    C21      C        0.71520    0.76100    0.40990    1.000
    H8       H        0.62420    0.78690    0.33010    1.000
    C22      C        0.72270    0.68520    0.45410    1.000
    C23      C        0.59370    0.62350    0.40220    1.000
    C24      C        0.56520    0.02510    0.57200    1.000
