# CIF file generated by openbabel 3.1.0, see https://openbabel.org
data_I
_chemical_name_common 'ECOROD_clean'
_cell_length_a 7.799
_cell_length_b 9.212
_cell_length_c 10.784
_cell_angle_alpha 107.595
_cell_angle_beta 92.877
_cell_angle_gamma 110.248
_space_group_name_H-M_alt 'P 1'
_space_group_name_Hall 'P 1'
loop_
    _symmetry_equiv_pos_as_xyz
    x,y,z
loop_
    _atom_site_label
    _atom_site_type_symbol
    _atom_site_fract_x
    _atom_site_fract_y
    _atom_site_fract_z
    _atom_site_occupancy
    Co1      Co       0.34848    0.85916    0.87049    1.000
    Co2      Co       0.65152    0.14084    0.12951    1.000
    Co3      Co       0.00000    0.00000    0.00000    1.000
    H1       H        0.67650    0.01840    0.58830    1.000
    H2       H        0.87800    0.14580    0.64300    1.000
    H3       H        0.82350    0.47800    0.56930    1.000
    H4       H        0.96870    0.42810    0.63110    1.000
    H5       H        0.93510    0.39220    0.86220    1.000
    H6       H        0.76130    0.40730    0.92000    1.000
    H7       H        0.15660    0.00360    0.78410    1.000
    H8       H        0.30330    0.13660    0.90420    1.000
    H9       H        0.32350    0.98160    0.41170    1.000
    H10      H        0.12200    0.85420    0.35700    1.000
    H11      H        0.17650    0.52200    0.43070    1.000
    H12      H        0.03130    0.57190    0.36890    1.000
    H13      H        0.06490    0.60780    0.13780    1.000
    H14      H        0.23870    0.59270    0.08000    1.000
    H15      H        0.84340    0.99640    0.21590    1.000
    H16      H        0.69670    0.86340    0.09580    1.000
    C1       C        0.69840    0.18800    0.76870    1.000
    C2       C        0.75090    0.13140    0.63280    1.000
    C3       C        0.71830    0.23320    0.55200    1.000
    C4       C        0.84230    0.41570    0.62100    1.000
    C5       C        0.79170    0.47850    0.75760    1.000
    C6       C        0.80790    0.37390    0.84090    1.000
    C7       C        0.74010    0.10060    0.85810    1.000
    C8       C        0.74900    0.17410    0.41060    1.000
    C9       C        0.92320    0.65570    0.83190    1.000
    C10      C        0.30160    0.81200    0.23130    1.000
    C11      C        0.24910    0.86860    0.36720    1.000
    C12      C        0.28170    0.76680    0.44800    1.000
    C13      C        0.15770    0.58430    0.37900    1.000
    C14      C        0.20830    0.52150    0.24240    1.000
    C15      C        0.19210    0.62610    0.15910    1.000
    C16      C        0.25990    0.89940    0.14190    1.000
    C17      C        0.25100    0.82590    0.58940    1.000
    C18      C        0.07680    0.34430    0.16810    1.000
    O1       O        0.89590    0.09280    0.87050    1.000
    O2       O        0.61560    0.04700    0.92380    1.000
    O3       O        0.86950    0.11390    0.38350    1.000
    O4       O        0.64810    0.19110    0.32540    1.000
    O5       O        0.85390    0.76220    0.87850    1.000
    O6       O        0.09320    0.68200    0.84670    1.000
    O7       O        0.21390    0.02700    0.87150    1.000
    O8       O        0.10410    0.90720    0.12950    1.000
    O9       O        0.38440    0.95300    0.07620    1.000
    O10      O        0.13050    0.88610    0.61650    1.000
    O11      O        0.35190    0.80890    0.67460    1.000
    O12      O        0.14610    0.23780    0.12150    1.000
    O13      O        0.90680    0.31800    0.15330    1.000
    O14      O        0.78610    0.97300    0.12850    1.000
