# CIF file generated by openbabel 3.1.0, see https://openbabel.org
data_I
_chemical_name_common 'image0'
_cell_length_a 10.8471
_cell_length_b 6.3389
_cell_length_c 16.8839
_cell_angle_alpha 90
_cell_angle_beta 105.592
_cell_angle_gamma 90
_space_group_name_H-M_alt 'P 1'
_space_group_name_Hall 'P 1'
loop_
    _symmetry_equiv_pos_as_xyz
    x,y,z
loop_
    _atom_site_label
    _atom_site_type_symbol
    _atom_site_fract_x
    _atom_site_fract_y
    _atom_site_fract_z
    _atom_site_occupancy
    Co1      Co       0.03419    0.50306    0.41605    1.000
    O1       O        0.94460    0.68970    0.48330    1.000
    O2       O        0.85990    0.37400    0.34520    1.000
    C1       C        0.67790    0.25800    0.19880    1.000
    H1       H        0.71510    0.39040    0.19970    1.000
    C2       C        0.83100    0.18580    0.33600    1.000
    C3       C        0.53660    0.34680    0.06190    1.000
    C4       C        0.41360    0.43210    0.04080    1.000
    H2       H        0.35480    0.38510    0.06800    1.000
    C5       C        0.57750    0.19970    0.13190    1.000
    C6       C        0.66660    0.92340    0.26060    1.000
    H3       H        0.69780    0.82670    0.30260    1.000
    C7       C        0.72320    0.11940    0.26450    1.000
    C8       C        0.56490    0.86820    0.19570    1.000
    H4       H        0.52650    0.73680    0.19510    1.000
    C9       C        0.52000    0.00560    0.13210    1.000
    H5       H        0.45040    0.96810    0.08880    1.000
    O3       O        0.88490    0.03720    0.38190    1.000
    C10      C        0.37700    0.58310    0.98110    1.000
    C11      C        0.24280    0.67210    0.96440    1.000
    O4       O        0.15630    0.53340    0.95230    1.000
    O5       O        0.22450    0.86180    0.96580    1.000
    H6       H        0.88000    0.68400    0.46100    1.000
    Co2      Co       0.96581    0.00306    0.08395    1.000
    O6       O        0.05540    0.18970    0.01670    1.000
    O7       O        0.14010    0.87400    0.15480    1.000
    C12      C        0.32210    0.75800    0.30120    1.000
    H7       H        0.28490    0.89040    0.30030    1.000
    C13      C        0.16900    0.68580    0.16400    1.000
    C14      C        0.46340    0.84680    0.43810    1.000
    C15      C        0.58640    0.93210    0.45920    1.000
    H8       H        0.64520    0.88510    0.43200    1.000
    C16      C        0.42250    0.69970    0.36810    1.000
    C17      C        0.33340    0.42340    0.23940    1.000
    H9       H        0.30220    0.32670    0.19740    1.000
    C18      C        0.27680    0.61940    0.23550    1.000
    C19      C        0.43510    0.36820    0.30430    1.000
    H10      H        0.47350    0.23680    0.30490    1.000
    C20      C        0.48000    0.50560    0.36790    1.000
    H11      H        0.54960    0.46810    0.41120    1.000
    O8       O        0.11510    0.53720    0.11810    1.000
    C21      C        0.62300    0.08310    0.51890    1.000
    C22      C        0.75720    0.17210    0.53560    1.000
    O9       O        0.84370    0.03340    0.54770    1.000
    O10      O        0.77550    0.36180    0.53420    1.000
    H12      H        0.12000    0.18400    0.03900    1.000
    Co3      Co       0.96581    0.49694    0.58395    1.000
    O11      O        0.05540    0.31030    0.51670    1.000
    O12      O        0.14010    0.62600    0.65480    1.000
    C23      C        0.32210    0.74200    0.80120    1.000
    H13      H        0.28490    0.60960    0.80030    1.000
    C24      C        0.16900    0.81420    0.66400    1.000
    C25      C        0.46340    0.65320    0.93810    1.000
    C26      C        0.58640    0.56790    0.95920    1.000
    H14      H        0.64520    0.61490    0.93200    1.000
    C27      C        0.42250    0.80030    0.86810    1.000
    C28      C        0.33340    0.07660    0.73940    1.000
    H15      H        0.30220    0.17330    0.69740    1.000
    C29      C        0.27680    0.88060    0.73550    1.000
    C30      C        0.43510    0.13180    0.80430    1.000
    H16      H        0.47350    0.26320    0.80490    1.000
    C31      C        0.48000    0.99440    0.86790    1.000
    H17      H        0.54960    0.03190    0.91120    1.000
    O13      O        0.11510    0.96280    0.61810    1.000
    C32      C        0.62300    0.41690    0.01890    1.000
    C33      C        0.75720    0.32790    0.03560    1.000
    O14      O        0.84370    0.46660    0.04770    1.000
    O15      O        0.77550    0.13820    0.03420    1.000
    H18      H        0.12000    0.31600    0.53900    1.000
    Co4      Co       0.03419    0.99694    0.91605    1.000
    O16      O        0.94460    0.81030    0.98330    1.000
    O17      O        0.85990    0.12600    0.84520    1.000
    C34      C        0.67790    0.24200    0.69880    1.000
    H19      H        0.71510    0.10960    0.69970    1.000
    C35      C        0.83100    0.31420    0.83600    1.000
    C36      C        0.53660    0.15320    0.56190    1.000
    C37      C        0.41360    0.06790    0.54080    1.000
    H20      H        0.35480    0.11490    0.56800    1.000
    C38      C        0.57750    0.30030    0.63190    1.000
    C39      C        0.66660    0.57660    0.76060    1.000
    H21      H        0.69780    0.67330    0.80260    1.000
    C40      C        0.72320    0.38060    0.76450    1.000
    C41      C        0.56490    0.63180    0.69570    1.000
    H22      H        0.52650    0.76320    0.69510    1.000
    C42      C        0.52000    0.49440    0.63210    1.000
    H23      H        0.45040    0.53190    0.58880    1.000
    O18      O        0.88490    0.46280    0.88190    1.000
    C43      C        0.37700    0.91690    0.48110    1.000
    C44      C        0.24280    0.82790    0.46440    1.000
    O19      O        0.15630    0.96660    0.45230    1.000
    O20      O        0.22450    0.63820    0.46580    1.000
    H24      H        0.88000    0.81600    0.96100    1.000
    Co5      Co       0.00000    0.00000    0.50000    1.000
    Co6      Co       0.00000    0.50000    0.00000    1.000
