# CIF file generated by openbabel 3.1.0, see https://openbabel.org
data_I
_chemical_name_common 'image0'
_cell_length_a 7.6486
_cell_length_b 22.019
_cell_length_c 6.155
_cell_angle_alpha 90
_cell_angle_beta 90
_cell_angle_gamma 90
_space_group_name_H-M_alt 'P 1'
_space_group_name_Hall 'P 1'
loop_
    _symmetry_equiv_pos_as_xyz
    x,y,z
loop_
    _atom_site_label
    _atom_site_type_symbol
    _atom_site_fract_x
    _atom_site_fract_y
    _atom_site_fract_z
    _atom_site_occupancy
    Ce1      Ce       0.47938    0.85422    0.56072    1.000
    O1       O        0.38470    0.96179    0.41850    1.000
    O2       O        0.60130    0.95719    0.68700    1.000
    O3       O        0.52740    0.84580    0.16490    1.000
    O4       O        0.68610    0.83676    0.86320    1.000
    O5       O        0.78780    0.86209    0.41660    1.000
    H1       H        0.85920    0.88530    0.47120    1.000
    O6       O        0.84160    0.73682    0.21730    1.000
    H2       H        0.76350    0.74360    0.30540    1.000
    O7       O        0.19270    0.83551    0.36780    1.000
    O8       O        0.08600    0.75043    0.50630    1.000
    C1       C        0.67010    0.84335    0.06530    1.000
    C2       C        0.83790    0.84894    0.19910    1.000
    H3       H        0.90820    0.88260    0.14240    1.000
    C3       C        0.94540    0.79023    0.18980    1.000
    H4       H        0.00350    0.78810    0.04810    1.000
    C4       C        0.08670    0.79219    0.36780    1.000
    Ce2      Ce       0.52062    0.14578    0.56072    1.000
    O9       O        0.61530    0.03821    0.41850    1.000
    O10      O        0.39870    0.04281    0.68700    1.000
    O11      O        0.47260    0.15420    0.16490    1.000
    O12      O        0.31390    0.16324    0.86320    1.000
    O13      O        0.21220    0.13791    0.41660    1.000
    H5       H        0.14080    0.11470    0.47120    1.000
    O14      O        0.15840    0.26318    0.21730    1.000
    H6       H        0.23650    0.25640    0.30540    1.000
    O15      O        0.80730    0.16449    0.36780    1.000
    O16      O        0.91400    0.24957    0.50630    1.000
    C5       C        0.32990    0.15665    0.06530    1.000
    C6       C        0.16210    0.15106    0.19910    1.000
    H7       H        0.09180    0.11740    0.14240    1.000
    C7       C        0.05460    0.20977    0.18980    1.000
    H8       H        0.99650    0.21190    0.04810    1.000
    C8       C        0.91330    0.20781    0.36780    1.000
    Ce3      Ce       0.02062    0.35422    0.43928    1.000
    O17      O        0.11530    0.46179    0.58150    1.000
    O18      O        0.89870    0.45719    0.31300    1.000
    O19      O        0.97260    0.34580    0.83510    1.000
    O20      O        0.81390    0.33676    0.13680    1.000
    O21      O        0.71220    0.36209    0.58340    1.000
    H9       H        0.64080    0.38530    0.52880    1.000
    O22      O        0.65840    0.23682    0.78270    1.000
    H10      H        0.73650    0.24360    0.69460    1.000
    O23      O        0.30730    0.33551    0.63220    1.000
    O24      O        0.41400    0.25043    0.49370    1.000
    C9       C        0.82990    0.34335    0.93470    1.000
    C10      C        0.66210    0.34894    0.80090    1.000
    H11      H        0.59180    0.38260    0.85760    1.000
    C11      C        0.55460    0.29023    0.81020    1.000
    H12      H        0.49650    0.28810    0.95190    1.000
    C12      C        0.41330    0.29219    0.63220    1.000
    Ce4      Ce       0.97938    0.64578    0.43928    1.000
    O25      O        0.88470    0.53821    0.58150    1.000
    O26      O        0.10130    0.54281    0.31300    1.000
    O27      O        0.02740    0.65420    0.83510    1.000
    O28      O        0.18610    0.66324    0.13680    1.000
    O29      O        0.28780    0.63791    0.58340    1.000
    H13      H        0.35920    0.61470    0.52880    1.000
    O30      O        0.34160    0.76318    0.78270    1.000
    H14      H        0.26350    0.75640    0.69460    1.000
    O31      O        0.69270    0.66449    0.63220    1.000
    O32      O        0.58600    0.74957    0.49370    1.000
    C13      C        0.17010    0.65665    0.93470    1.000
    C14      C        0.33790    0.65106    0.80090    1.000
    H15      H        0.40820    0.61740    0.85760    1.000
    C15      C        0.44540    0.70977    0.81020    1.000
    H16      H        0.50350    0.71190    0.95190    1.000
    C16      C        0.58670    0.70781    0.63220    1.000
    S1       S        0.50000    0.00000    0.55320    1.000
    S2       S        0.00000    0.50000    0.44680    1.000
