# CIF file generated by openbabel 3.1.0, see https://openbabel.org
data_I
_chemical_name_common 'OGAGEJ_clean'
_cell_length_a 10.334
_cell_length_b 11.5451
_cell_length_c 28.4469
_cell_angle_alpha 90
_cell_angle_beta 90
_cell_angle_gamma 115.309
_space_group_name_H-M_alt 'P 1'
_space_group_name_Hall 'P 1'
loop_
    _symmetry_equiv_pos_as_xyz
    x,y,z
loop_
    _atom_site_label
    _atom_site_type_symbol
    _atom_site_fract_x
    _atom_site_fract_y
    _atom_site_fract_z
    _atom_site_occupancy
    Zn1      Zn       0.09027    0.00767    0.93767    1.000
    Zn2      Zn       0.33054    0.33425    0.52206    1.000
    Zn3      Zn       0.90973    0.49233    0.43767    1.000
    Zn4      Zn       0.66946    0.16575    0.02206    1.000
    Zn5      Zn       0.90973    0.99233    0.06233    1.000
    Zn6      Zn       0.66946    0.66575    0.47794    1.000
    Zn7      Zn       0.09027    0.50767    0.56233    1.000
    Zn8      Zn       0.33054    0.83425    0.97794    1.000
    P1       P        0.40577    0.12297    0.95489    1.000
    P2       P        0.06415    0.83037    0.02287    1.000
    P3       P        0.59423    0.37703    0.45489    1.000
    P4       P        0.93585    0.66963    0.52287    1.000
    P5       P        0.59423    0.87703    0.04511    1.000
    P6       P        0.93585    0.16963    0.97713    1.000
    P7       P        0.40577    0.62297    0.54511    1.000
    P8       P        0.06415    0.33037    0.47713    1.000
    H1       H        0.92920    0.03270    0.85710    1.000
    H2       H        0.90670    0.00060    0.77720    1.000
    H3       H        0.22140    0.88070    0.78280    1.000
    H4       H        0.23860    0.91920    0.86280    1.000
    H5       H        0.94470    0.86330    0.71080    1.000
    H6       H        0.07480    0.00040    0.70260    1.000
    H7       H        0.23720    0.90780    0.70080    1.000
    H8       H        0.11120    0.77000    0.71250    1.000
    H9       H        0.15160    0.77430    0.63180    1.000
    H10      H        0.99930    0.77720    0.63860    1.000
    H11      H        0.96880    0.97020    0.61510    1.000
    H12      H        0.05380    0.15830    0.57260    1.000
    H13      H        0.43220    0.15490    0.56010    1.000
    H14      H        0.35890    0.97080    0.60440    1.000
    H15      H        0.47749    0.19420    0.92060    1.000
    H16      H        0.96572    0.72730    0.03454    1.000
    H17      H        0.07080    0.46730    0.35710    1.000
    H18      H        0.09330    0.49940    0.27720    1.000
    H19      H        0.77860    0.61930    0.28280    1.000
    H20      H        0.76140    0.58080    0.36280    1.000
    H21      H        0.05530    0.63670    0.21080    1.000
    H22      H        0.92520    0.49960    0.20260    1.000
    H23      H        0.76280    0.59220    0.20080    1.000
    H24      H        0.88880    0.73000    0.21250    1.000
    H25      H        0.84840    0.72570    0.13180    1.000
    H26      H        0.00070    0.72280    0.13860    1.000
    H27      H        0.03120    0.52980    0.11510    1.000
    H28      H        0.94620    0.34170    0.07260    1.000
    H29      H        0.56780    0.34510    0.06010    1.000
    H30      H        0.64110    0.52920    0.10440    1.000
    H31      H        0.52251    0.30580    0.42060    1.000
    H32      H        0.03428    0.77270    0.53454    1.000
    H33      H        0.07080    0.96730    0.14290    1.000
    H34      H        0.09330    0.99940    0.22280    1.000
    H35      H        0.77860    0.11930    0.21720    1.000
    H36      H        0.76140    0.08080    0.13720    1.000
    H37      H        0.05530    0.13670    0.28920    1.000
    H38      H        0.92520    0.99960    0.29740    1.000
    H39      H        0.76280    0.09220    0.29920    1.000
    H40      H        0.88880    0.23000    0.28750    1.000
    H41      H        0.84840    0.22570    0.36820    1.000
    H42      H        0.00070    0.22280    0.36140    1.000
    H43      H        0.03120    0.02980    0.38490    1.000
    H44      H        0.94620    0.84170    0.42740    1.000
    H45      H        0.56780    0.84510    0.43990    1.000
    H46      H        0.64110    0.02920    0.39560    1.000
    H47      H        0.52251    0.80580    0.07940    1.000
    H48      H        0.03428    0.27270    0.96546    1.000
    H49      H        0.92920    0.53270    0.64290    1.000
    H50      H        0.90670    0.50060    0.72280    1.000
    H51      H        0.22140    0.38070    0.71720    1.000
    H52      H        0.23860    0.41920    0.63720    1.000
    H53      H        0.94470    0.36330    0.78920    1.000
    H54      H        0.07480    0.50040    0.79740    1.000
    H55      H        0.23720    0.40780    0.79920    1.000
    H56      H        0.11120    0.27000    0.78750    1.000
    H57      H        0.15160    0.27430    0.86820    1.000
    H58      H        0.99930    0.27720    0.86140    1.000
    H59      H        0.96880    0.47020    0.88490    1.000
    H60      H        0.05380    0.65830    0.92740    1.000
    H61      H        0.43220    0.65490    0.93990    1.000
    H62      H        0.35890    0.47080    0.89560    1.000
    H63      H        0.47749    0.69420    0.57940    1.000
    H64      H        0.96572    0.22730    0.46546    1.000
    C1       C        0.98973    0.00183    0.84167    1.000
    C2       C        0.97549    0.98273    0.79401    1.000
    C3       C        0.06254    0.93693    0.77035    1.000
    C4       C        0.16061    0.91281    0.79732    1.000
    C5       C        0.16989    0.93527    0.84513    1.000
    C6       C        0.04701    0.91621    0.71797    1.000
    C7       C        0.13401    0.85226    0.69621    1.000
    C8       C        0.10369    0.82689    0.64340    1.000
    C9       C        0.15454    0.94843    0.61505    1.000
    C10      C        0.06528    0.00735    0.60452    1.000
    C11      C        0.11617    0.11904    0.57888    1.000
    C12      C        0.33707    0.11744    0.57192    1.000
    C13      C        0.29369    0.00698    0.59804    1.000
    C14      C        0.01027    0.49817    0.34167    1.000
    C15      C        0.02451    0.51727    0.29401    1.000
    C16      C        0.93746    0.56307    0.27035    1.000
    C17      C        0.83939    0.58719    0.29732    1.000
    C18      C        0.83011    0.56473    0.34513    1.000
    C19      C        0.95299    0.58379    0.21797    1.000
    C20      C        0.86599    0.64774    0.19621    1.000
    C21      C        0.89631    0.67311    0.14340    1.000
    C22      C        0.84546    0.55157    0.11505    1.000
    C23      C        0.93472    0.49265    0.10452    1.000
    C24      C        0.88383    0.38096    0.07888    1.000
    C25      C        0.66293    0.38256    0.07192    1.000
    C26      C        0.70631    0.49302    0.09804    1.000
    C27      C        0.01027    0.99817    0.15833    1.000
    C28      C        0.02451    0.01727    0.20599    1.000
    C29      C        0.93746    0.06307    0.22965    1.000
    C30      C        0.83939    0.08719    0.20268    1.000
    C31      C        0.83011    0.06473    0.15487    1.000
    C32      C        0.95299    0.08379    0.28203    1.000
    C33      C        0.86599    0.14774    0.30379    1.000
    C34      C        0.89631    0.17311    0.35660    1.000
    C35      C        0.84546    0.05157    0.38495    1.000
    C36      C        0.93472    0.99265    0.39548    1.000
    C37      C        0.88383    0.88096    0.42112    1.000
    C38      C        0.66293    0.88256    0.42808    1.000
    C39      C        0.70631    0.99302    0.40196    1.000
    C40      C        0.98973    0.50183    0.65833    1.000
    C41      C        0.97549    0.48273    0.70599    1.000
    C42      C        0.06254    0.43693    0.72965    1.000
    C43      C        0.16061    0.41281    0.70268    1.000
    C44      C        0.16989    0.43527    0.65487    1.000
    C45      C        0.04701    0.41621    0.78203    1.000
    C46      C        0.13401    0.35226    0.80379    1.000
    C47      C        0.10369    0.32689    0.85660    1.000
    C48      C        0.15454    0.44843    0.88495    1.000
    C49      C        0.06528    0.50735    0.89548    1.000
    C50      C        0.11617    0.61904    0.92112    1.000
    C51      C        0.33707    0.61744    0.92808    1.000
    C52      C        0.29369    0.50698    0.90196    1.000
    N1       N        0.08539    0.97899    0.86767    1.000
    N2       N        0.25098    0.17496    0.56229    1.000
    N3       N        0.91461    0.52101    0.36767    1.000
    N4       N        0.74902    0.32504    0.06229    1.000
    N5       N        0.91461    0.02101    0.13233    1.000
    N6       N        0.74902    0.82504    0.43771    1.000
    N7       N        0.08539    0.47899    0.63233    1.000
    N8       N        0.25098    0.67496    0.93771    1.000
    O1       O        0.37110    0.98603    0.94125    1.000
    O2       O        0.26972    0.14389    0.95995    1.000
    O3       O        0.04390    0.84896    0.97104    1.000
    O4       O        0.20411    0.81816    0.03121    1.000
    O5       O        0.05671    0.93197    0.05492    1.000
    O6       O        0.49728    0.17110    0.99838    1.000
    O7       O        0.62890    0.51397    0.44125    1.000
    O8       O        0.73028    0.35611    0.45995    1.000
    O9       O        0.95610    0.65104    0.47104    1.000
    O10      O        0.79589    0.68184    0.53121    1.000
    O11      O        0.94329    0.56803    0.55492    1.000
    O12      O        0.50272    0.32890    0.49838    1.000
    O13      O        0.62890    0.01397    0.05875    1.000
    O14      O        0.73028    0.85611    0.04005    1.000
    O15      O        0.95610    0.15104    0.02896    1.000
    O16      O        0.79589    0.18184    0.96879    1.000
    O17      O        0.94329    0.06803    0.94508    1.000
    O18      O        0.50272    0.82890    0.00162    1.000
    O19      O        0.37110    0.48603    0.55875    1.000
    O20      O        0.26972    0.64389    0.54005    1.000
    O21      O        0.04390    0.34896    0.52896    1.000
    O22      O        0.20411    0.31816    0.46879    1.000
    O23      O        0.05671    0.43197    0.44508    1.000
    O24      O        0.49728    0.67110    0.50162    1.000
