# CIF file generated by openbabel 3.1.0, see https://openbabel.org
data_I
_chemical_name_common 'ZECKOJ_clean'
_cell_length_a 13.8151
_cell_length_b 13.8151
_cell_length_c 13.8151
_cell_angle_alpha 105.335
_cell_angle_beta 105.335
_cell_angle_gamma 118.104
_space_group_name_H-M_alt 'P 1'
_space_group_name_Hall 'P 1'
loop_
    _symmetry_equiv_pos_as_xyz
    x,y,z
loop_
    _atom_site_label
    _atom_site_type_symbol
    _atom_site_fract_x
    _atom_site_fract_y
    _atom_site_fract_z
    _atom_site_occupancy
    Cu1      Cu       0.52117    0.62025    0.09908    1.000
    Cu2      Cu       0.52117    0.42209    0.90092    1.000
    Cu3      Cu       0.67209    0.27117    0.40092    1.000
    Cu4      Cu       0.87025    0.27117    0.59908    1.000
    H1       H        0.65770    0.59220    0.39150    1.000
    H2       H        0.51190    0.51590    0.33260    1.000
    H3       H        0.59190    0.63730    0.32260    1.000
    H4       H        0.20070    0.26620    0.60850    1.000
    H5       H        0.18330    0.17930    0.66740    1.000
    H6       H        0.31470    0.26930    0.67740    1.000
    H7       H        0.51620    0.40770    0.56550    1.000
    H8       H        0.42930    0.26190    0.49600    1.000
    H9       H        0.51930    0.34190    0.45460    1.000
    H10      H        0.84220    0.95070    0.43450    1.000
    H11      H        0.76590    0.93330    0.50400    1.000
    H12      H        0.88730    0.06470    0.54540    1.000
    H13      H        0.20070    0.59220    0.93450    1.000
    H14      H        0.18330    0.51590    0.00400    1.000
    H15      H        0.31470    0.63730    0.04540    1.000
    H16      H        0.65770    0.26620    0.06550    1.000
    H17      H        0.51190    0.17930    0.99600    1.000
    H18      H        0.59190    0.26930    0.95460    1.000
    H19      H        0.84220    0.40770    0.89150    1.000
    H20      H        0.76590    0.26190    0.83260    1.000
    H21      H        0.88730    0.34190    0.82260    1.000
    H22      H        0.51620    0.95070    0.10850    1.000
    H23      H        0.42930    0.93330    0.16740    1.000
    H24      H        0.51930    0.06470    0.17740    1.000
    C1       C        0.57980    0.49110    0.22210    1.000
    C2       C        0.58590    0.56560    0.32630    1.000
    C3       C        0.26900    0.35770    0.77790    1.000
    C4       C        0.23930    0.25960    0.67370    1.000
    C5       C        0.60770    0.32980    0.58870    1.000
    C6       C        0.50960    0.33590    0.52030    1.000
    C7       C        0.74110    0.01900    0.41130    1.000
    C8       C        0.81560    0.98930    0.47970    1.000
    C9       C        0.26900    0.49110    0.91130    1.000
    C10      C        0.23930    0.56560    0.97970    1.000
    C11      C        0.57980    0.35770    0.08870    1.000
    C12      C        0.58590    0.25960    0.02030    1.000
    C13      C        0.74110    0.32980    0.72210    1.000
    C14      C        0.81560    0.33590    0.82630    1.000
    C15      C        0.60770    0.01900    0.27790    1.000
    C16      C        0.50960    0.98930    0.17370    1.000
    C17      C        0.60430    0.39980    0.20450    1.000
    C18      C        0.63450    0.35530    0.27920    1.000
    C19      C        0.19530    0.39980    0.79550    1.000
    C20      C        0.07610    0.35530    0.72080    1.000
    C21      C        0.64980    0.35430    0.70450    1.000
    C22      C        0.60530    0.38450    0.77920    1.000
    C23      C        0.64980    0.94530    0.29550    1.000
    C24      C        0.60530    0.82610    0.22080    1.000
    N1       N        0.54890    0.50230    0.12780    1.000
    N2       N        0.37450    0.42110    0.87220    1.000
    N3       N        0.67110    0.29890    0.54660    1.000
    N4       N        0.75230    0.12450    0.45340    1.000
    N5       N        0.37450    0.50230    0.95340    1.000
    N6       N        0.54890    0.42110    0.04660    1.000
    N7       N        0.75230    0.29890    0.62780    1.000
    N8       N        0.67110    0.12450    0.37220    1.000
    O1       O        0.64960    0.39960    0.38020    1.000
    O2       O        0.01940    0.26940    0.61980    1.000
    O3       O        0.51940    0.39960    0.75000    1.000
    O4       O        0.64960    0.76940    0.25000    1.000
    O5       O        0.01940    0.39960    0.75000    1.000
    O6       O        0.64960    0.26940    0.25000    1.000
    O7       O        0.64960    0.39960    0.88020    1.000
    O8       O        0.51940    0.76940    0.11980    1.000
