# CIF file generated by openbabel 3.1.0, see https://openbabel.org
data_I
_chemical_name_common 'BELYIC_clean'
_cell_length_a 8.5879
_cell_length_b 8.5879
_cell_length_c 20.8637
_cell_angle_alpha 100.897
_cell_angle_beta 100.897
_cell_angle_gamma 94.6714
_space_group_name_H-M_alt 'P 1'
_space_group_name_Hall 'P 1'
loop_
    _symmetry_equiv_pos_as_xyz
    x,y,z
loop_
    _atom_site_label
    _atom_site_type_symbol
    _atom_site_fract_x
    _atom_site_fract_y
    _atom_site_fract_z
    _atom_site_occupancy
    Mg1      Mg       0.58313    0.71035    0.33266    1.000
    Mg2      Mg       0.28965    0.41687    0.66734    1.000
    Mg3      Mg       0.37231    0.99953    0.83266    1.000
    Mg4      Mg       0.00047    0.62769    0.16734    1.000
    Mg5      Mg       0.70273    0.29727    0.50000    1.000
    Mg6      Mg       0.95273    0.04727    0.00000    1.000
    H1       H        0.03310    0.04130    0.37960    1.000
    H2       H        0.97020    0.21140    0.39760    1.000
    H3       H        0.03180    0.11900    0.45560    1.000
    H4       H        0.98930    0.72210    0.42100    1.000
    H5       H        0.06080    0.55500    0.41660    1.000
    H6       H        0.95060    0.59340    0.35200    1.000
    H7       H        0.55190    0.35330    0.25360    1.000
    H8       H        0.63930    0.25110    0.20160    1.000
    H9       H        0.72470    0.30330    0.27880    1.000
    H10      H        0.95870    0.96690    0.62040    1.000
    H11      H        0.78860    0.02980    0.60240    1.000
    H12      H        0.88100    0.96820    0.54440    1.000
    H13      H        0.27790    0.01070    0.57900    1.000
    H14      H        0.44500    0.93920    0.58340    1.000
    H15      H        0.40660    0.04940    0.64800    1.000
    H16      H        0.64670    0.44810    0.74640    1.000
    H17      H        0.74890    0.36070    0.79840    1.000
    H18      H        0.69670    0.27530    0.72120    1.000
    H19      H        0.08830    0.59650    0.87960    1.000
    H20      H        0.93620    0.67740    0.89760    1.000
    H21      H        0.08660    0.67380    0.95560    1.000
    H22      H        0.44890    0.68170    0.92100    1.000
    H23      H        0.61160    0.60580    0.91660    1.000
    H24      H        0.50860    0.65140    0.85200    1.000
    H25      H        0.65030    0.95170    0.75360    1.000
    H26      H        0.70050    0.81230    0.70160    1.000
    H27      H        0.72550    0.80410    0.77880    1.000
    H28      H        0.40350    0.91170    0.12040    1.000
    H29      H        0.32260    0.06380    0.10240    1.000
    H30      H        0.32620    0.91340    0.04440    1.000
    H31      H        0.31830    0.55110    0.07900    1.000
    H32      H        0.39420    0.38840    0.08340    1.000
    H33      H        0.34860    0.49140    0.14800    1.000
    H34      H        0.04830    0.34970    0.24640    1.000
    H35      H        0.18770    0.29950    0.29840    1.000
    H36      H        0.19590    0.27450    0.22120    1.000
    C1       C        0.80770    0.02364    0.40032    1.000
    C2       C        0.97546    0.10608    0.40902    1.000
    C3       C        0.82178    0.53506    0.41984    1.000
    C4       C        0.96856    0.60782    0.40070    1.000
    C5       C        0.73258    0.48882    0.22908    1.000
    C6       C        0.65529    0.33561    0.24192    1.000
    C7       C        0.97636    0.19230    0.59968    1.000
    C8       C        0.89392    0.02454    0.59098    1.000
    C9       C        0.46494    0.17822    0.58016    1.000
    C10      C        0.39218    0.03144    0.59930    1.000
    C11      C        0.51118    0.26742    0.77092    1.000
    C12      C        0.66439    0.34471    0.75808    1.000
    C13      C        0.12668    0.84262    0.90032    1.000
    C14      C        0.05294    0.68356    0.90902    1.000
    C15      C        0.63478    0.84806    0.91984    1.000
    C16      C        0.54288    0.68214    0.90070    1.000
    C17      C        0.49026    0.74650    0.72908    1.000
    C18      C        0.65631    0.83663    0.74192    1.000
    C19      C        0.15738    0.87332    0.09968    1.000
    C20      C        0.31644    0.94706    0.09098    1.000
    C21      C        0.15194    0.36522    0.08016    1.000
    C22      C        0.31786    0.45712    0.09930    1.000
    C23      C        0.25350    0.50974    0.27092    1.000
    C24      C        0.16337    0.34369    0.25808    1.000
    O1       O        0.76853    0.89297    0.35920    1.000
    O2       O        0.71622    0.08870    0.43534    1.000
    O3       O        0.68645    0.56903    0.39410    1.000
    O4       O        0.84196    0.44478    0.46068    1.000
    O5       O        0.83084    0.47794    0.19172    1.000
    O6       O        0.69507    0.62037    0.25764    1.000
    O7       O        0.10703    0.23147    0.64080    1.000
    O8       O        0.91130    0.28378    0.56466    1.000
    O9       O        0.43097    0.31355    0.60590    1.000
    O10      O        0.55522    0.15804    0.53932    1.000
    O11      O        0.52206    0.16916    0.80828    1.000
    O12      O        0.37963    0.30493    0.74236    1.000
    O13      O        0.21623    0.84067    0.85920    1.000
    O14      O        0.09664    0.96912    0.93534    1.000
    O15      O        0.57507    0.95765    0.89410    1.000
    O16      O        0.76590    0.86872    0.96068    1.000
    O17      O        0.46378    0.61088    0.69172    1.000
    O18      O        0.38727    0.81257    0.75764    1.000
    O19      O        0.15933    0.78377    0.14080    1.000
    O20      O        0.03088    0.90336    0.06466    1.000
    O21      O        0.04235    0.42493    0.10590    1.000
    O22      O        0.13128    0.23410    0.03932    1.000
    O23      O        0.38912    0.53622    0.30828    1.000
    O24      O        0.18743    0.61273    0.24236    1.000
