# CIF file generated by openbabel 3.1.0, see https://openbabel.org
data_I
_chemical_name_common 'GUJVOX_clean'
_cell_length_a 9.241
_cell_length_b 11.245
_cell_length_c 11.845
_cell_angle_alpha 78.97
_cell_angle_beta 74.58
_cell_angle_gamma 87.609
_space_group_name_H-M_alt 'P 1'
_space_group_name_Hall 'P 1'
loop_
    _symmetry_equiv_pos_as_xyz
    x,y,z
loop_
    _atom_site_label
    _atom_site_type_symbol
    _atom_site_fract_x
    _atom_site_fract_y
    _atom_site_fract_z
    _atom_site_occupancy
    Mn1      Mn       0.00000    0.00000    0.00000    1.000
    Mn2      Mn       0.00000    0.00000    0.50000    1.000
    H1       H        0.64490    0.05350    0.63150    1.000
    H2       H        0.79300    0.10380    0.28850    1.000
    H3       H        0.56600    0.21440    0.22970    1.000
    H4       H        0.41560    0.18060    0.32860    1.000
    H5       H        0.28980    0.36340    0.28220    1.000
    H6       H        0.12270    0.52530    0.28680    1.000
    H7       H        0.21510    0.63710    0.20250    1.000
    H8       H        0.98620    0.71000    0.61410    1.000
    H9       H        0.10030    0.83030    0.27480    1.000
    H10      H        0.42810    0.67890    0.33090    1.000
    H11      H        0.67920    0.38050    0.36630    1.000
    H12      H        0.75270    0.56370    0.41960    1.000
    H13      H        0.64110    0.67290    0.42750    1.000
    H14      H        0.00920    0.70140    0.03100    1.000
    H15      H        0.75190    0.86090    0.26820    1.000
    H16      H        0.35510    0.94650    0.36850    1.000
    H17      H        0.20700    0.89620    0.71150    1.000
    H18      H        0.43400    0.78560    0.77030    1.000
    H19      H        0.58440    0.81940    0.67140    1.000
    H20      H        0.71020    0.63660    0.71780    1.000
    H21      H        0.87730    0.47470    0.71320    1.000
    H22      H        0.78490    0.36290    0.79750    1.000
    H23      H        0.01380    0.29000    0.38590    1.000
    H24      H        0.89970    0.16970    0.72520    1.000
    H25      H        0.57190    0.32110    0.66910    1.000
    H26      H        0.32080    0.61950    0.63370    1.000
    H27      H        0.24730    0.43630    0.58040    1.000
    H28      H        0.35890    0.32710    0.57250    1.000
    H29      H        0.99080    0.29860    0.96900    1.000
    H30      H        0.24810    0.13910    0.73180    1.000
    C1       C        0.65030    0.07780    0.55090    1.000
    C2       C        0.73320    0.10360    0.36530    1.000
    C3       C        0.51290    0.21950    0.31100    1.000
    C4       C        0.49020    0.35200    0.32130    1.000
    C5       C        0.36100    0.40780    0.29970    1.000
    C6       C        0.33760    0.53080    0.30410    1.000
    C7       C        0.19350    0.58850    0.28220    1.000
    C8       C        0.02490    0.71330    0.53260    1.000
    C9       C        0.08460    0.78050    0.34940    1.000
    C10      C        0.44350    0.59700    0.32870    1.000
    C11      C        0.59440    0.41850    0.34860    1.000
    C12      C        0.57410    0.54170    0.35020    1.000
    C13      C        0.69140    0.61700    0.37700    1.000
    C14      C        0.94060    0.71450    0.10060    1.000
    C15      C        0.80260    0.80260    0.22680    1.000
    C16      C        0.34970    0.92220    0.44910    1.000
    C17      C        0.26680    0.89640    0.63470    1.000
    C18      C        0.48710    0.78050    0.68900    1.000
    C19      C        0.50980    0.64800    0.67870    1.000
    C20      C        0.63900    0.59220    0.70030    1.000
    C21      C        0.66240    0.46920    0.69590    1.000
    C22      C        0.80650    0.41150    0.71780    1.000
    C23      C        0.97510    0.28670    0.46740    1.000
    C24      C        0.91540    0.21950    0.65060    1.000
    C25      C        0.55650    0.40300    0.67130    1.000
    C26      C        0.40560    0.58150    0.65140    1.000
    C27      C        0.42590    0.45830    0.64980    1.000
    C28      C        0.30860    0.38300    0.62300    1.000
    C29      C        0.05940    0.28550    0.89940    1.000
    C30      C        0.19740    0.19740    0.77320    1.000
    S1       S        0.85018    0.88593    0.80577    1.000
    S2       S        0.14982    0.11407    0.19423    1.000
    N1       N        0.59740    0.15440    0.39170    1.000
    N2       N        0.54110    0.13930    0.51250    1.000
    N3       N        0.76990    0.05320    0.46430    1.000
    N4       N        0.12520    0.66520    0.36890    1.000
    N5       N        0.08970    0.61960    0.48880    1.000
    N6       N        0.01830    0.81400    0.45250    1.000
    N7       N        0.78700    0.68460    0.26660    1.000
    N8       N        0.87720    0.62520    0.18570    1.000
    N9       N        0.89960    0.82710    0.12060    1.000
    N10      N        0.40260    0.84560    0.60830    1.000
    N11      N        0.45890    0.86070    0.48750    1.000
    N12      N        0.23010    0.94680    0.53570    1.000
    N13      N        0.87480    0.33480    0.63110    1.000
    N14      N        0.91030    0.38040    0.51120    1.000
    N15      N        0.98170    0.18600    0.54750    1.000
    N16      N        0.21300    0.31540    0.73340    1.000
    N17      N        0.12280    0.37480    0.81430    1.000
    N18      N        0.10040    0.17290    0.87940    1.000
    O1       O        0.87730    0.92020    0.67760    1.000
    O2       O        0.85440    0.75410    0.83600    1.000
    O3       O        0.96500    0.93930    0.84520    1.000
    O4       O        0.70230    0.92420    0.86420    1.000
    O5       O        0.12270    0.07980    0.32240    1.000
    O6       O        0.14560    0.24590    0.16400    1.000
    O7       O        0.03500    0.06070    0.15480    1.000
    O8       O        0.29770    0.07580    0.13580    1.000
