# CIF file generated by openbabel 3.1.0, see https://openbabel.org
data_I
_chemical_name_common 'EJEGOQ_clean'
_cell_length_a 22.851
_cell_length_b 22.851
_cell_length_c 22.851
_cell_angle_alpha 109.471
_cell_angle_beta 109.471
_cell_angle_gamma 109.471
_space_group_name_H-M_alt 'P 1'
_space_group_name_Hall 'P 1'
loop_
    _symmetry_equiv_pos_as_xyz
    x,y,z
loop_
    _atom_site_label
    _atom_site_type_symbol
    _atom_site_fract_x
    _atom_site_fract_y
    _atom_site_fract_z
    _atom_site_occupancy
    U1       U        0.27568    0.08575    0.66695    1.000
    U2       U        0.41880    0.60873    0.33305    1.000
    U3       U        0.58120    0.91425    0.18993    1.000
    U4       U        0.72432    0.39127    0.81007    1.000
    U5       U        0.18993    0.58120    0.91425    1.000
    U6       U        0.81007    0.72432    0.39127    1.000
    U7       U        0.66695    0.27568    0.08575    1.000
    U8       U        0.33305    0.41880    0.60873    1.000
    U9       U        0.60873    0.33305    0.41880    1.000
    U10      U        0.08575    0.66695    0.27568    1.000
    U11      U        0.39127    0.81007    0.72432    1.000
    U12      U        0.91425    0.18993    0.58120    1.000
    U13      U        0.72432    0.91425    0.33305    1.000
    U14      U        0.58120    0.39127    0.66695    1.000
    U15      U        0.41880    0.08575    0.81007    1.000
    U16      U        0.27568    0.60873    0.18993    1.000
    U17      U        0.81007    0.41880    0.08575    1.000
    U18      U        0.18993    0.27568    0.60873    1.000
    U19      U        0.33305    0.72432    0.91425    1.000
    U20      U        0.66695    0.58120    0.39127    1.000
    U21      U        0.39127    0.66695    0.58120    1.000
    U22      U        0.91425    0.33305    0.72432    1.000
    U23      U        0.60873    0.18993    0.27568    1.000
    U24      U        0.08575    0.81007    0.41880    1.000
    U25      U        0.36470    0.06958    0.43428    1.000
    U26      U        0.63530    0.93042    0.56572    1.000
    U27      U        0.36470    0.93043    0.29512    1.000
    U28      U        0.63530    0.06957    0.70488    1.000
    U29      U        0.29512    0.36470    0.93042    1.000
    U30      U        0.70488    0.63530    0.06958    1.000
    U31      U        0.43427    0.36469    0.06957    1.000
    U32      U        0.56573    0.63531    0.93043    1.000
    U33      U        0.93042    0.56572    0.63530    1.000
    U34      U        0.06958    0.43428    0.36470    1.000
    U35      U        0.06958    0.70488    0.63531    1.000
    U36      U        0.93042    0.29512    0.36469    1.000
    U37      U        0.21881    0.86837    0.35044    1.000
    U38      U        0.51793    0.86837    0.64956    1.000
    U39      U        0.48207    0.13163    0.35044    1.000
    U40      U        0.78119    0.13163    0.64956    1.000
    U41      U        0.35044    0.48207    0.13163    1.000
    U42      U        0.64956    0.78119    0.13163    1.000
    U43      U        0.35044    0.21881    0.86837    1.000
    U44      U        0.64956    0.51793    0.86837    1.000
    U45      U        0.86837    0.64956    0.51793    1.000
    U46      U        0.86837    0.35044    0.21881    1.000
    U47      U        0.13163    0.64956    0.78119    1.000
    U48      U        0.13163    0.35044    0.48207    1.000
    Co1      Co       0.35968    0.85968    0.50000    1.000
    Co2      Co       0.64032    0.14032    0.50000    1.000
    Co3      Co       0.50000    0.64032    0.14032    1.000
    Co4      Co       0.50000    0.35968    0.85968    1.000
    Co5      Co       0.85968    0.50000    0.35968    1.000
    Co6      Co       0.14032    0.50000    0.64032    1.000
    Co7      Co       0.00000    0.00000    0.37442    1.000
    Co8      Co       0.62558    0.62558    0.62558    1.000
    Co9      Co       0.37442    0.00000    0.00000    1.000
    Co10     Co       0.00000    0.37442    0.00000    1.000
    Co11     Co       0.00000    0.00000    0.62558    1.000
    Co12     Co       0.37442    0.37442    0.37442    1.000
    Co13     Co       0.62558    0.00000    0.00000    1.000
    Co14     Co       0.00000    0.62558    0.00000    1.000
    Co15     Co       0.00000    0.00000    0.50000    1.000
    Co16     Co       0.50000    0.50000    0.50000    1.000
    Co17     Co       0.50000    0.00000    0.00000    1.000
    Co18     Co       0.00000    0.50000    0.00000    1.000
    P1       P        0.22419    0.99206    0.48101    1.000
    P2       P        0.51105    0.74318    0.51899    1.000
    P3       P        0.48895    0.00794    0.23213    1.000
    P4       P        0.77581    0.25682    0.76787    1.000
    P5       P        0.23213    0.48895    0.00794    1.000
    P6       P        0.76787    0.77581    0.25682    1.000
    P7       P        0.48101    0.22419    0.99206    1.000
    P8       P        0.51899    0.51105    0.74318    1.000
    P9       P        0.74318    0.51899    0.51105    1.000
    P10      P        0.99206    0.48101    0.22419    1.000
    P11      P        0.25682    0.76787    0.77581    1.000
    P12      P        0.00794    0.23213    0.48895    1.000
    P13      P        0.77581    0.00794    0.51899    1.000
    P14      P        0.48895    0.25682    0.48101    1.000
    P15      P        0.51105    0.99206    0.76787    1.000
    P16      P        0.22419    0.74318    0.23213    1.000
    P17      P        0.76787    0.51105    0.99206    1.000
    P18      P        0.23213    0.22419    0.74318    1.000
    P19      P        0.51899    0.77581    0.00794    1.000
    P20      P        0.48101    0.48895    0.25682    1.000
    P21      P        0.25682    0.48101    0.48895    1.000
    P22      P        0.00794    0.51899    0.77581    1.000
    P23      P        0.74318    0.23213    0.22419    1.000
    P24      P        0.99206    0.76787    0.51105    1.000
    H1       H        0.16420    0.04020    0.42740    1.000
    H2       H        0.23290    0.10170    0.50100    1.000
    H3       H        0.61280    0.73680    0.57260    1.000
    H4       H        0.60070    0.73190    0.49900    1.000
    H5       H        0.38720    0.95980    0.12400    1.000
    H6       H        0.39930    0.89830    0.13120    1.000
    H7       H        0.83580    0.26320    0.87600    1.000
    H8       H        0.76710    0.26810    0.86880    1.000
    H9       H        0.12400    0.38720    0.95980    1.000
    H10      H        0.13120    0.39930    0.89830    1.000
    H11      H        0.87600    0.83580    0.26320    1.000
    H12      H        0.86880    0.76710    0.26810    1.000
    H13      H        0.42740    0.16420    0.04020    1.000
    H14      H        0.50100    0.23290    0.10170    1.000
    H15      H        0.57260    0.61280    0.73680    1.000
    H16      H        0.49900    0.60070    0.73190    1.000
    H17      H        0.73680    0.57260    0.61280    1.000
    H18      H        0.73190    0.49900    0.60070    1.000
    H19      H        0.04020    0.42740    0.16420    1.000
    H20      H        0.10170    0.50100    0.23290    1.000
    H21      H        0.26320    0.87600    0.83580    1.000
    H22      H        0.26810    0.86880    0.76710    1.000
    H23      H        0.95980    0.12400    0.38720    1.000
    H24      H        0.89830    0.13120    0.39930    1.000
    H25      H        0.83580    0.95980    0.57260    1.000
    H26      H        0.76710    0.89830    0.49900    1.000
    H27      H        0.38720    0.26320    0.42740    1.000
    H28      H        0.39930    0.26810    0.50100    1.000
    H29      H        0.61280    0.04020    0.87600    1.000
    H30      H        0.60070    0.10170    0.86880    1.000
    H31      H        0.16420    0.73680    0.12400    1.000
    H32      H        0.23290    0.73190    0.13120    1.000
    H33      H        0.87600    0.61280    0.04020    1.000
    H34      H        0.86880    0.60070    0.10170    1.000
    H35      H        0.12400    0.16420    0.73680    1.000
    H36      H        0.13120    0.23290    0.73190    1.000
    H37      H        0.57260    0.83580    0.95980    1.000
    H38      H        0.49900    0.76710    0.89830    1.000
    H39      H        0.42740    0.38720    0.26320    1.000
    H40      H        0.50100    0.39930    0.26810    1.000
    H41      H        0.26320    0.42740    0.38720    1.000
    H42      H        0.26810    0.50100    0.39930    1.000
    H43      H        0.95980    0.57260    0.83580    1.000
    H44      H        0.89830    0.49900    0.76710    1.000
    H45      H        0.73680    0.12400    0.16420    1.000
    H46      H        0.73190    0.13120    0.23290    1.000
    H47      H        0.04020    0.87600    0.61280    1.000
    H48      H        0.10170    0.86880    0.60070    1.000
    C1       C        0.19231    0.05395    0.47704    1.000
    C2       C        0.14675    0.05449    0.51244    1.000
    C3       C        0.57691    0.71527    0.52296    1.000
    C4       C        0.54205    0.63431    0.48756    1.000
    C5       C        0.42309    0.94605    0.13836    1.000
    C6       C        0.45795    0.94551    0.09226    1.000
    C7       C        0.80769    0.28473    0.86164    1.000
    C8       C        0.85325    0.36569    0.90774    1.000
    C9       C        0.13836    0.42309    0.94605    1.000
    C10      C        0.09226    0.45795    0.94551    1.000
    C11      C        0.86164    0.80769    0.28473    1.000
    C12      C        0.90774    0.85325    0.36569    1.000
    C13      C        0.47704    0.19231    0.05395    1.000
    C14      C        0.51244    0.14675    0.05449    1.000
    C15      C        0.52296    0.57691    0.71527    1.000
    C16      C        0.48756    0.54205    0.63431    1.000
    C17      C        0.71527    0.52296    0.57691    1.000
    C18      C        0.63431    0.48756    0.54205    1.000
    C19      C        0.05395    0.47704    0.19231    1.000
    C20      C        0.05449    0.51244    0.14675    1.000
    C21      C        0.28473    0.86164    0.80769    1.000
    C22      C        0.36569    0.90774    0.85325    1.000
    C23      C        0.94605    0.13836    0.42309    1.000
    C24      C        0.94551    0.09226    0.45795    1.000
    C25      C        0.80769    0.94605    0.52296    1.000
    C26      C        0.85325    0.94551    0.48756    1.000
    C27      C        0.42309    0.28473    0.47704    1.000
    C28      C        0.45795    0.36569    0.51244    1.000
    C29      C        0.57691    0.05395    0.86164    1.000
    C30      C        0.54205    0.05449    0.90774    1.000
    C31      C        0.19231    0.71527    0.13836    1.000
    C32      C        0.14675    0.63431    0.09226    1.000
    C33      C        0.86164    0.57691    0.05395    1.000
    C34      C        0.90774    0.54205    0.05449    1.000
    C35      C        0.13836    0.19231    0.71527    1.000
    C36      C        0.09226    0.14675    0.63431    1.000
    C37      C        0.52296    0.80769    0.94605    1.000
    C38      C        0.48756    0.85325    0.94551    1.000
    C39      C        0.47704    0.42309    0.28473    1.000
    C40      C        0.51244    0.45795    0.36569    1.000
    C41      C        0.28473    0.47704    0.42309    1.000
    C42      C        0.36569    0.51244    0.45795    1.000
    C43      C        0.94605    0.52296    0.80769    1.000
    C44      C        0.94551    0.48756    0.85325    1.000
    C45      C        0.71527    0.13836    0.19231    1.000
    C46      C        0.63431    0.09226    0.14675    1.000
    C47      C        0.05395    0.86164    0.57691    1.000
    C48      C        0.05449    0.90774    0.54205    1.000
    O1       O        0.25362    0.00538    0.55628    1.000
    O2       O        0.16244    0.91542    0.42492    1.000
    O3       O        0.27788    0.00029    0.45443    1.000
    O4       O        0.17569    0.07708    0.57841    1.000
    O5       O        0.08110    0.03178    0.47410    1.000
    O6       O        0.44910    0.69734    0.44372    1.000
    O7       O        0.49050    0.73752    0.57508    1.000
    O8       O        0.54586    0.82345    0.54557    1.000
    O9       O        0.49867    0.59728    0.42159    1.000
    O10      O        0.55768    0.60700    0.52590    1.000
    O11      O        0.55090    0.99462    0.24824    1.000
    O12      O        0.50950    0.08458    0.24702    1.000
    O13      O        0.45414    0.99971    0.27759    1.000
    O14      O        0.50133    0.92292    0.09861    1.000
    O15      O        0.44232    0.96822    0.04932    1.000
    O16      O        0.74638    0.30266    0.75176    1.000
    O17      O        0.83756    0.26248    0.75298    1.000
    O18      O        0.72212    0.17655    0.72241    1.000
    O19      O        0.82431    0.40272    0.90139    1.000
    O20      O        0.91890    0.39300    0.95068    1.000
    O21      O        0.24824    0.55090    0.99462    1.000
    O22      O        0.24702    0.50950    0.08458    1.000
    O23      O        0.27759    0.45414    0.99971    1.000
    O24      O        0.09861    0.50133    0.92292    1.000
    O25      O        0.04932    0.44232    0.96822    1.000
    O26      O        0.75176    0.74638    0.30266    1.000
    O27      O        0.75298    0.83756    0.26248    1.000
    O28      O        0.72241    0.72212    0.17655    1.000
    O29      O        0.90139    0.82431    0.40272    1.000
    O30      O        0.95068    0.91890    0.39300    1.000
    O31      O        0.55628    0.25362    0.00538    1.000
    O32      O        0.42492    0.16244    0.91542    1.000
    O33      O        0.45443    0.27788    0.00029    1.000
    O34      O        0.57841    0.17569    0.07708    1.000
    O35      O        0.47410    0.08110    0.03178    1.000
    O36      O        0.44372    0.44910    0.69734    1.000
    O37      O        0.57508    0.49050    0.73752    1.000
    O38      O        0.54557    0.54586    0.82345    1.000
    O39      O        0.42159    0.49867    0.59728    1.000
    O40      O        0.52590    0.55768    0.60700    1.000
    O41      O        0.69734    0.44372    0.44910    1.000
    O42      O        0.73752    0.57508    0.49050    1.000
    O43      O        0.82345    0.54557    0.54586    1.000
    O44      O        0.59728    0.42159    0.49867    1.000
    O45      O        0.60700    0.52590    0.55768    1.000
    O46      O        0.00538    0.55628    0.25362    1.000
    O47      O        0.91542    0.42492    0.16244    1.000
    O48      O        0.00029    0.45443    0.27788    1.000
    O49      O        0.07708    0.57841    0.17569    1.000
    O50      O        0.03178    0.47410    0.08110    1.000
    O51      O        0.30266    0.75176    0.74638    1.000
    O52      O        0.26248    0.75298    0.83756    1.000
    O53      O        0.17655    0.72241    0.72212    1.000
    O54      O        0.40272    0.90139    0.82431    1.000
    O55      O        0.39300    0.95068    0.91890    1.000
    O56      O        0.99462    0.24824    0.55090    1.000
    O57      O        0.08458    0.24702    0.50950    1.000
    O58      O        0.99971    0.27759    0.45414    1.000
    O59      O        0.92292    0.09861    0.50133    1.000
    O60      O        0.96822    0.04932    0.44232    1.000
    O61      O        0.74638    0.99462    0.44372    1.000
    O62      O        0.83756    0.08458    0.57508    1.000
    O63      O        0.72212    0.99971    0.54557    1.000
    O64      O        0.82431    0.92292    0.42159    1.000
    O65      O        0.91890    0.96822    0.52590    1.000
    O66      O        0.55090    0.30266    0.55628    1.000
    O67      O        0.50950    0.26248    0.42492    1.000
    O68      O        0.45414    0.17655    0.45443    1.000
    O69      O        0.50133    0.40272    0.57841    1.000
    O70      O        0.44232    0.39300    0.47410    1.000
    O71      O        0.44910    0.00538    0.75176    1.000
    O72      O        0.49050    0.91542    0.75298    1.000
    O73      O        0.54586    0.00029    0.72241    1.000
    O74      O        0.49867    0.07708    0.90139    1.000
    O75      O        0.55768    0.03178    0.95068    1.000
    O76      O        0.25362    0.69734    0.24824    1.000
    O77      O        0.16244    0.73752    0.24702    1.000
    O78      O        0.27788    0.82345    0.27759    1.000
    O79      O        0.17569    0.59728    0.09861    1.000
    O80      O        0.08110    0.60700    0.04932    1.000
    O81      O        0.75176    0.44910    0.00538    1.000
    O82      O        0.75298    0.49050    0.91542    1.000
    O83      O        0.72241    0.54586    0.00029    1.000
    O84      O        0.90139    0.49867    0.07708    1.000
    O85      O        0.95068    0.55768    0.03178    1.000
    O86      O        0.24824    0.25362    0.69734    1.000
    O87      O        0.24702    0.16244    0.73752    1.000
    O88      O        0.27759    0.27788    0.82345    1.000
    O89      O        0.09861    0.17569    0.59728    1.000
    O90      O        0.04932    0.08110    0.60700    1.000
    O91      O        0.44372    0.74638    0.99462    1.000
    O92      O        0.57508    0.83756    0.08458    1.000
    O93      O        0.54557    0.72212    0.99971    1.000
    O94      O        0.42159    0.82431    0.92292    1.000
    O95      O        0.52590    0.91890    0.96822    1.000
    O96      O        0.55628    0.55090    0.30266    1.000
    O97      O        0.42492    0.50950    0.26248    1.000
    O98      O        0.45443    0.45414    0.17655    1.000
    O99      O        0.57841    0.50133    0.40272    1.000
    O100     O        0.47410    0.44232    0.39300    1.000
    O101     O        0.30266    0.55628    0.55090    1.000
    O102     O        0.26248    0.42492    0.50950    1.000
    O103     O        0.17655    0.45443    0.45414    1.000
    O104     O        0.40272    0.57841    0.50133    1.000
    O105     O        0.39300    0.47410    0.44232    1.000
    O106     O        0.99462    0.44372    0.74638    1.000
    O107     O        0.08458    0.57508    0.83756    1.000
    O108     O        0.99971    0.54557    0.72212    1.000
    O109     O        0.92292    0.42159    0.82431    1.000
    O110     O        0.96822    0.52590    0.91890    1.000
    O111     O        0.69734    0.24824    0.25362    1.000
    O112     O        0.73752    0.24702    0.16244    1.000
    O113     O        0.82345    0.27759    0.27788    1.000
    O114     O        0.59728    0.09861    0.17569    1.000
    O115     O        0.60700    0.04932    0.08110    1.000
    O116     O        0.00538    0.75176    0.44910    1.000
    O117     O        0.91542    0.75298    0.49050    1.000
    O118     O        0.00029    0.72241    0.54586    1.000
    O119     O        0.07708    0.90139    0.49867    1.000
    O120     O        0.03178    0.95068    0.55768    1.000
    O121     O        0.28239    0.86297    0.41942    1.000
    O122     O        0.40122    0.04882    0.35240    1.000
    O123     O        0.13282    0.78527    0.34755    1.000
    O124     O        0.44355    0.86297    0.58058    1.000
    O125     O        0.69642    0.04882    0.64760    1.000
    O126     O        0.43772    0.78527    0.65245    1.000
    O127     O        0.55645    0.13703    0.41942    1.000
    O128     O        0.30358    0.95118    0.35240    1.000
    O129     O        0.56228    0.21473    0.34755    1.000
    O130     O        0.71761    0.13703    0.58058    1.000
    O131     O        0.59878    0.95118    0.64760    1.000
    O132     O        0.86718    0.21473    0.65245    1.000
    O133     O        0.41942    0.55645    0.13703    1.000
    O134     O        0.35240    0.30358    0.95118    1.000
    O135     O        0.34755    0.56228    0.21473    1.000
    O136     O        0.58058    0.71761    0.13703    1.000
    O137     O        0.64760    0.59878    0.95118    1.000
    O138     O        0.65245    0.86718    0.21473    1.000
    O139     O        0.41942    0.28239    0.86297    1.000
    O140     O        0.35240    0.40122    0.04882    1.000
    O141     O        0.34755    0.13282    0.78527    1.000
    O142     O        0.58058    0.44355    0.86297    1.000
    O143     O        0.64760    0.69642    0.04882    1.000
    O144     O        0.65245    0.43772    0.78527    1.000
    O145     O        0.86297    0.58058    0.44355    1.000
    O146     O        0.04882    0.64760    0.69642    1.000
    O147     O        0.78527    0.65245    0.43772    1.000
    O148     O        0.86297    0.41942    0.28239    1.000
    O149     O        0.04882    0.35240    0.40122    1.000
    O150     O        0.78527    0.34755    0.13282    1.000
    O151     O        0.13703    0.58058    0.71761    1.000
    O152     O        0.95118    0.64760    0.59878    1.000
    O153     O        0.21473    0.65245    0.86718    1.000
    O154     O        0.13703    0.41942    0.55645    1.000
    O155     O        0.95118    0.35240    0.30358    1.000
    O156     O        0.21473    0.34755    0.56228    1.000
    O157     O        0.36040    0.04850    0.68810    1.000
    O158     O        0.36040    0.67230    0.31190    1.000
    O159     O        0.63960    0.95150    0.31190    1.000
    O160     O        0.63960    0.32770    0.68810    1.000
    O161     O        0.31190    0.63960    0.95150    1.000
    O162     O        0.68810    0.63960    0.32770    1.000
    O163     O        0.68810    0.36040    0.04850    1.000
    O164     O        0.31190    0.36040    0.67230    1.000
    O165     O        0.67230    0.31190    0.36040    1.000
    O166     O        0.04850    0.68810    0.36040    1.000
    O167     O        0.32770    0.68810    0.63960    1.000
    O168     O        0.95150    0.31190    0.63960    1.000
