# CIF file generated by openbabel 3.1.0, see https://openbabel.org
data_I
_chemical_name_common 'image0'
_cell_length_a 16.738
_cell_length_b 17.162
_cell_length_c 17.209
_cell_angle_alpha 90
_cell_angle_beta 90
_cell_angle_gamma 90
_space_group_name_H-M_alt 'P 1'
_space_group_name_Hall 'P 1'
loop_
    _symmetry_equiv_pos_as_xyz
    x,y,z
loop_
    _atom_site_label
    _atom_site_type_symbol
    _atom_site_fract_x
    _atom_site_fract_y
    _atom_site_fract_z
    _atom_site_occupancy
    Ho1      Ho       0.08420    0.03992    0.34906    1.000
    O1       O        0.95830    0.03990    0.29430    1.000
    O2       O        0.99790    0.11110    0.43410    1.000
    O3       O        0.09150    0.02330    0.21100    1.000
    O4       O        0.05100    0.91060    0.30970    1.000
    O5       O        0.21030    0.98250    0.34680    1.000
    O6       O        0.06950    0.95980    0.46360    1.000
    O7       O        0.10900    0.16650    0.30130    1.000
    Ho2      Ho       0.90917    0.91467    0.31011    1.000
    Ho3      Ho       0.96639    0.06049    0.15506    1.000
    S1       S        0.97549    0.11235    0.51682    1.000
    Ho4      Ho       0.09590    0.88619    0.18475    1.000
    S2       S        0.26611    0.96547    0.28292    1.000
    O8       O        0.96220    0.92800    0.18150    1.000
    O9       O        0.91830    0.79090    0.25670    1.000
    O10      O        0.95140    0.88380    0.43590    1.000
    O11      O        0.79570    0.96070    0.24900    1.000
    O12      O        0.88940    0.99700    0.05890    1.000
    O13      O        0.00710    0.17960    0.20380    1.000
    O14      O        0.05620    0.06740    0.05200    1.000
    O15      O        0.83270    0.08120    0.18810    1.000
    O16      O        0.92480    0.17940    0.53310    1.000
    O17      O        0.22410    0.92060    0.22290    1.000
    O18      O        0.10790    0.93750    0.06300    1.000
    S3       S        0.91302    0.70659    0.27144    1.000
    S4       S        0.88145    0.98593    0.97529    1.000
    O19      O        0.85460    0.69020    0.33180    1.000
    O20      O        0.80310    0.95360    0.95760    1.000
    Ho5      Ho       0.41580    0.46008    0.34906    1.000
    O21      O        0.54170    0.46010    0.29430    1.000
    O22      O        0.50210    0.38890    0.43410    1.000
    O23      O        0.40850    0.47670    0.21100    1.000
    O24      O        0.44900    0.58940    0.30970    1.000
    O25      O        0.28970    0.51750    0.34680    1.000
    O26      O        0.43050    0.54020    0.46360    1.000
    O27      O        0.39100    0.33350    0.30130    1.000
    Ho6      Ho       0.59083    0.58533    0.31011    1.000
    Ho7      Ho       0.53361    0.43951    0.15506    1.000
    S5       S        0.52451    0.38765    0.51682    1.000
    Ho8      Ho       0.40410    0.61381    0.18475    1.000
    S6       S        0.23389    0.53453    0.28292    1.000
    O28      O        0.53780    0.57200    0.18150    1.000
    O29      O        0.58170    0.70910    0.25670    1.000
    O30      O        0.54860    0.61620    0.43590    1.000
    O31      O        0.70430    0.53930    0.24900    1.000
    O32      O        0.61060    0.50300    0.05890    1.000
    O33      O        0.49290    0.32040    0.20380    1.000
    O34      O        0.44380    0.43260    0.05200    1.000
    O35      O        0.66730    0.41880    0.18810    1.000
    O36      O        0.57520    0.32060    0.53310    1.000
    O37      O        0.27590    0.57940    0.22290    1.000
    O38      O        0.39210    0.56250    0.06300    1.000
    S7       S        0.58698    0.79341    0.27144    1.000
    S8       S        0.61855    0.51407    0.97529    1.000
    O39      O        0.64540    0.80980    0.33180    1.000
    O40      O        0.69690    0.54640    0.95760    1.000
    Ho9      Ho       0.91580    0.53992    0.15095    1.000
    O41      O        0.04170    0.53990    0.20570    1.000
    O42      O        0.00210    0.61110    0.06590    1.000
    O43      O        0.90850    0.52330    0.28900    1.000
    O44      O        0.94900    0.41060    0.19030    1.000
    O45      O        0.78970    0.48250    0.15320    1.000
    O46      O        0.93050    0.45980    0.03640    1.000
    O47      O        0.89100    0.66650    0.19870    1.000
    Ho10     Ho       0.09083    0.41467    0.18989    1.000
    Ho11     Ho       0.03361    0.56049    0.34494    1.000
    S9       S        0.02451    0.61235    0.98318    1.000
    Ho12     Ho       0.90410    0.38619    0.31525    1.000
    S10      S        0.73389    0.46547    0.21708    1.000
    O48      O        0.03780    0.42800    0.31850    1.000
    O49      O        0.08170    0.29090    0.24330    1.000
    O50      O        0.04860    0.38380    0.06410    1.000
    O51      O        0.20430    0.46070    0.25100    1.000
    O52      O        0.11060    0.49700    0.44110    1.000
    O53      O        0.99290    0.67960    0.29620    1.000
    O54      O        0.94380    0.56740    0.44800    1.000
    O55      O        0.16730    0.58120    0.31190    1.000
    O56      O        0.07520    0.67940    0.96690    1.000
    O57      O        0.77590    0.42060    0.27710    1.000
    O58      O        0.89210    0.43750    0.43700    1.000
    S11      S        0.08698    0.20659    0.22856    1.000
    S12      S        0.11855    0.48593    0.52471    1.000
    O59      O        0.14540    0.19020    0.16820    1.000
    O60      O        0.19690    0.45360    0.54240    1.000
    Ho13     Ho       0.58420    0.96008    0.15095    1.000
    O61      O        0.45830    0.96010    0.20570    1.000
    O62      O        0.49790    0.88890    0.06590    1.000
    O63      O        0.59150    0.97670    0.28900    1.000
    O64      O        0.55100    0.08940    0.19030    1.000
    O65      O        0.71030    0.01750    0.15320    1.000
    O66      O        0.56950    0.04020    0.03640    1.000
    O67      O        0.60900    0.83350    0.19870    1.000
    Ho14     Ho       0.40917    0.08533    0.18989    1.000
    Ho15     Ho       0.46639    0.93951    0.34494    1.000
    S13      S        0.47549    0.88765    0.98318    1.000
    Ho16     Ho       0.59590    0.11381    0.31525    1.000
    S14      S        0.76611    0.03453    0.21708    1.000
    O68      O        0.46220    0.07200    0.31850    1.000
    O69      O        0.41830    0.20910    0.24330    1.000
    O70      O        0.45140    0.11620    0.06410    1.000
    O71      O        0.29570    0.03930    0.25100    1.000
    O72      O        0.38940    0.00300    0.44110    1.000
    O73      O        0.50710    0.82040    0.29620    1.000
    O74      O        0.55620    0.93260    0.44800    1.000
    O75      O        0.33270    0.91880    0.31190    1.000
    O76      O        0.42480    0.82060    0.96690    1.000
    O77      O        0.72410    0.07940    0.27710    1.000
    O78      O        0.60790    0.06250    0.43700    1.000
    S15      S        0.41302    0.29341    0.22856    1.000
    S16      S        0.38145    0.01407    0.52471    1.000
    O79      O        0.35460    0.30980    0.16820    1.000
    O80      O        0.30310    0.04640    0.54240    1.000
    Ho17     Ho       0.91580    0.96008    0.65095    1.000
    O81      O        0.04170    0.96010    0.70570    1.000
    O82      O        0.00210    0.88890    0.56590    1.000
    O83      O        0.90850    0.97670    0.78900    1.000
    O84      O        0.94900    0.08940    0.69030    1.000
    O85      O        0.78970    0.01750    0.65320    1.000
    O86      O        0.93050    0.04020    0.53640    1.000
    O87      O        0.89100    0.83350    0.69870    1.000
    Ho18     Ho       0.09083    0.08533    0.68989    1.000
    Ho19     Ho       0.03361    0.93951    0.84494    1.000
    S17      S        0.02451    0.88765    0.48318    1.000
    Ho20     Ho       0.90410    0.11381    0.81525    1.000
    S18      S        0.73389    0.03453    0.71708    1.000
    O88      O        0.03780    0.07200    0.81850    1.000
    O89      O        0.08170    0.20910    0.74330    1.000
    O90      O        0.04860    0.11620    0.56410    1.000
    O91      O        0.20430    0.03930    0.75100    1.000
    O92      O        0.11060    0.00300    0.94110    1.000
    O93      O        0.99290    0.82040    0.79620    1.000
    O94      O        0.94380    0.93260    0.94800    1.000
    O95      O        0.16730    0.91880    0.81190    1.000
    O96      O        0.07520    0.82060    0.46690    1.000
    O97      O        0.77590    0.07940    0.77710    1.000
    O98      O        0.89210    0.06250    0.93700    1.000
    S19      S        0.08698    0.29341    0.72856    1.000
    S20      S        0.11855    0.01407    0.02471    1.000
    O99      O        0.14540    0.30980    0.66820    1.000
    O100     O        0.19690    0.04640    0.04240    1.000
    Ho21     Ho       0.58420    0.53992    0.65095    1.000
    O101     O        0.45830    0.53990    0.70570    1.000
    O102     O        0.49790    0.61110    0.56590    1.000
    O103     O        0.59150    0.52330    0.78900    1.000
    O104     O        0.55100    0.41060    0.69030    1.000
    O105     O        0.71030    0.48250    0.65320    1.000
    O106     O        0.56950    0.45980    0.53640    1.000
    O107     O        0.60900    0.66650    0.69870    1.000
    Ho22     Ho       0.40917    0.41467    0.68989    1.000
    Ho23     Ho       0.46639    0.56049    0.84494    1.000
    S21      S        0.47549    0.61235    0.48318    1.000
    Ho24     Ho       0.59590    0.38619    0.81525    1.000
    S22      S        0.76611    0.46547    0.71708    1.000
    O108     O        0.46220    0.42800    0.81850    1.000
    O109     O        0.41830    0.29090    0.74330    1.000
    O110     O        0.45140    0.38380    0.56410    1.000
    O111     O        0.29570    0.46070    0.75100    1.000
    O112     O        0.38940    0.49700    0.94110    1.000
    O113     O        0.50710    0.67960    0.79620    1.000
    O114     O        0.55620    0.56740    0.94800    1.000
    O115     O        0.33270    0.58120    0.81190    1.000
    O116     O        0.42480    0.67940    0.46690    1.000
    O117     O        0.72410    0.42060    0.77710    1.000
    O118     O        0.60790    0.43750    0.93700    1.000
    S23      S        0.41302    0.20659    0.72856    1.000
    S24      S        0.38145    0.48593    0.02471    1.000
    O119     O        0.35460    0.19020    0.66820    1.000
    O120     O        0.30310    0.45360    0.04240    1.000
    Ho25     Ho       0.08420    0.46008    0.84906    1.000
    O121     O        0.95830    0.46010    0.79430    1.000
    O122     O        0.99790    0.38890    0.93410    1.000
    O123     O        0.09150    0.47670    0.71100    1.000
    O124     O        0.05100    0.58940    0.80970    1.000
    O125     O        0.21030    0.51750    0.84680    1.000
    O126     O        0.06950    0.54020    0.96360    1.000
    O127     O        0.10900    0.33350    0.80130    1.000
    Ho26     Ho       0.90917    0.58533    0.81011    1.000
    Ho27     Ho       0.96639    0.43951    0.65506    1.000
    S25      S        0.97549    0.38765    0.01682    1.000
    Ho28     Ho       0.09590    0.61381    0.68475    1.000
    S26      S        0.26611    0.53453    0.78292    1.000
    O128     O        0.96220    0.57200    0.68150    1.000
    O129     O        0.91830    0.70910    0.75670    1.000
    O130     O        0.95140    0.61620    0.93590    1.000
    O131     O        0.79570    0.53930    0.74900    1.000
    O132     O        0.88940    0.50300    0.55890    1.000
    O133     O        0.00710    0.32040    0.70380    1.000
    O134     O        0.05620    0.43260    0.55200    1.000
    O135     O        0.83270    0.41880    0.68810    1.000
    O136     O        0.92480    0.32060    0.03310    1.000
    O137     O        0.22410    0.57940    0.72290    1.000
    O138     O        0.10790    0.56250    0.56300    1.000
    S27      S        0.91302    0.79341    0.77144    1.000
    S28      S        0.88145    0.51407    0.47529    1.000
    O139     O        0.85460    0.80980    0.83180    1.000
    O140     O        0.80310    0.54640    0.45760    1.000
    Ho29     Ho       0.41580    0.03992    0.84906    1.000
    O141     O        0.54170    0.03990    0.79430    1.000
    O142     O        0.50210    0.11110    0.93410    1.000
    O143     O        0.40850    0.02330    0.71100    1.000
    O144     O        0.44900    0.91060    0.80970    1.000
    O145     O        0.28970    0.98250    0.84680    1.000
    O146     O        0.43050    0.95980    0.96360    1.000
    O147     O        0.39100    0.16650    0.80130    1.000
    Ho30     Ho       0.59083    0.91467    0.81011    1.000
    Ho31     Ho       0.53361    0.06049    0.65506    1.000
    S29      S        0.52451    0.11235    0.01682    1.000
    Ho32     Ho       0.40410    0.88619    0.68475    1.000
    S30      S        0.23389    0.96547    0.78292    1.000
    O148     O        0.53780    0.92800    0.68150    1.000
    O149     O        0.58170    0.79090    0.75670    1.000
    O150     O        0.54860    0.88380    0.93590    1.000
    O151     O        0.70430    0.96070    0.74900    1.000
    O152     O        0.61060    0.99700    0.55890    1.000
    O153     O        0.49290    0.17960    0.70380    1.000
    O154     O        0.44380    0.06740    0.55200    1.000
    O155     O        0.66730    0.08120    0.68810    1.000
    O156     O        0.57520    0.17940    0.03310    1.000
    O157     O        0.27590    0.92060    0.72290    1.000
    O158     O        0.39210    0.93750    0.56300    1.000
    S31      S        0.58698    0.70659    0.77144    1.000
    S32      S        0.61855    0.98593    0.47529    1.000
    O159     O        0.64540    0.69020    0.83180    1.000
    O160     O        0.69690    0.95360    0.45760    1.000
