# CIF file generated by openbabel 3.1.0, see https://openbabel.org
data_I
_chemical_name_common 'image0'
_cell_length_a 17.4095
_cell_length_b 10.1198
_cell_length_c 17.547
_cell_angle_alpha 90
_cell_angle_beta 90
_cell_angle_gamma 90
_space_group_name_H-M_alt 'P 1'
_space_group_name_Hall 'P 1'
loop_
    _symmetry_equiv_pos_as_xyz
    x,y,z
loop_
    _atom_site_label
    _atom_site_type_symbol
    _atom_site_fract_x
    _atom_site_fract_y
    _atom_site_fract_z
    _atom_site_occupancy
    Er1      Er       0.82147    0.87987    0.27263    1.000
    Er2      Er       0.52092    0.84113    0.25839    1.000
    O1       O        0.92100    0.89510    0.19550    1.000
    O2       O        0.08550    0.07230    0.86280    1.000
    O3       O        0.74780    0.94900    0.16870    1.000
    O4       O        0.69760    0.22010    0.86840    1.000
    O5       O        0.71590    0.93720    0.33250    1.000
    C1       C        0.67960    0.93220    0.15200    1.000
    O6       O        0.62980    0.87970    0.19560    1.000
    O7       O        0.59290    0.91190    0.36460    1.000
    C2       C        0.66100    0.93830    0.37790    1.000
    C3       C        0.68000    0.99430    0.45460    1.000
    C4       C        0.74870    0.03910    0.48010    1.000
    H1       H        0.79370    0.03470    0.45150    1.000
    C5       C        0.65140    0.97460    0.07620    1.000
    S1       S        0.70251    0.07890    0.01899    1.000
    O8       O        0.57410    0.11550    0.67030    1.000
    C6       C        0.63890    0.15430    0.87890    1.000
    O9       O        0.69160    0.19070    0.70140    1.000
    O10      O        0.58370    0.14720    0.83340    1.000
    C7       C        0.64470    0.13340    0.65770    1.000
    S2       S        0.60997    0.01570    0.52158    1.000
    S3       S        0.04056    0.96230    0.01085    1.000
    O11      O        0.03640    0.82390    0.16300    1.000
    C8       C        0.58460    0.93430    0.04160    1.000
    H2       H        0.55000    0.87540    0.06340    1.000
    C9       C        0.96720    0.95470    0.07600    1.000
    C10      C        0.57460    0.99270    0.96920    1.000
    H3       H        0.53240    0.97710    0.93810    1.000
    C11      C        0.63290    0.07330    0.95040    1.000
    C12      C        0.97750    0.88890    0.14960    1.000
    C13      C        0.90350    0.01700    0.05030    1.000
    H4       H        0.85810    0.02330    0.07800    1.000
    C14      C        0.67380    0.08830    0.58330    1.000
    C15      C        0.74550    0.09240    0.55350    1.000
    H5       H        0.78780    0.12680    0.57900    1.000
    O12      O        0.97060    0.15320    0.82950    1.000
    C16      C        0.98380    0.05030    0.94880    1.000
    C17      C        0.91330    0.07120    0.97710    1.000
    H6       H        0.87490    0.11660    0.95110    1.000
    C18      C        0.01670    0.09520    0.87470    1.000
    Er3      Er       0.17853    0.12013    0.77263    1.000
    Er4      Er       0.47908    0.15887    0.75839    1.000
    O13      O        0.07900    0.10490    0.69550    1.000
    O14      O        0.91450    0.92770    0.36280    1.000
    O15      O        0.25220    0.05100    0.66870    1.000
    O16      O        0.30240    0.77990    0.36840    1.000
    O17      O        0.28410    0.06280    0.83250    1.000
    C19      C        0.32040    0.06780    0.65200    1.000
    O18      O        0.37020    0.12030    0.69560    1.000
    O19      O        0.40710    0.08810    0.86460    1.000
    C20      C        0.33900    0.06170    0.87790    1.000
    C21      C        0.32000    0.00570    0.95460    1.000
    C22      C        0.25130    0.96090    0.98010    1.000
    H7       H        0.20630    0.96530    0.95150    1.000
    C23      C        0.34860    0.02540    0.57620    1.000
    S4       S        0.29749    0.92110    0.51899    1.000
    O20      O        0.42590    0.88450    0.17030    1.000
    C24      C        0.36110    0.84570    0.37890    1.000
    O21      O        0.30840    0.80930    0.20140    1.000
    O22      O        0.41630    0.85280    0.33340    1.000
    C25      C        0.35530    0.86660    0.15770    1.000
    S5       S        0.39003    0.98430    0.02158    1.000
    S6       S        0.95944    0.03770    0.51085    1.000
    O23      O        0.96360    0.17610    0.66300    1.000
    C26      C        0.41540    0.06570    0.54160    1.000
    H8       H        0.45000    0.12460    0.56340    1.000
    C27      C        0.03280    0.04530    0.57600    1.000
    C28      C        0.42540    0.00730    0.46920    1.000
    H9       H        0.46760    0.02290    0.43810    1.000
    C29      C        0.36710    0.92670    0.45040    1.000
    C30      C        0.02250    0.11110    0.64960    1.000
    C31      C        0.09650    0.98300    0.55030    1.000
    H10      H        0.14190    0.97670    0.57800    1.000
    C32      C        0.32620    0.91170    0.08330    1.000
    C33      C        0.25450    0.90760    0.05350    1.000
    H11      H        0.21220    0.87320    0.07900    1.000
    O24      O        0.02940    0.84680    0.32950    1.000
    C34      C        0.01620    0.94970    0.44880    1.000
    C35      C        0.08670    0.92880    0.47710    1.000
    H12      H        0.12510    0.88340    0.45110    1.000
    C36      C        0.98330    0.90480    0.37470    1.000
    Er5      Er       0.32147    0.62013    0.27263    1.000
    Er6      Er       0.02092    0.65887    0.25839    1.000
    O25      O        0.42100    0.60490    0.19550    1.000
    O26      O        0.58550    0.42770    0.86280    1.000
    O27      O        0.24780    0.55100    0.16870    1.000
    O28      O        0.19760    0.27990    0.86840    1.000
    O29      O        0.21590    0.56280    0.33250    1.000
    C37      C        0.17960    0.56780    0.15200    1.000
    O30      O        0.12980    0.62030    0.19560    1.000
    O31      O        0.09290    0.58810    0.36460    1.000
    C38      C        0.16100    0.56170    0.37790    1.000
    C39      C        0.18000    0.50570    0.45460    1.000
    C40      C        0.24870    0.46090    0.48010    1.000
    H13      H        0.29370    0.46530    0.45150    1.000
    C41      C        0.15140    0.52540    0.07620    1.000
    S7       S        0.20251    0.42110    0.01899    1.000
    O32      O        0.07410    0.38450    0.67030    1.000
    C42      C        0.13890    0.34570    0.87890    1.000
    O33      O        0.19160    0.30930    0.70140    1.000
    O34      O        0.08370    0.35280    0.83340    1.000
    C43      C        0.14470    0.36660    0.65770    1.000
    S8       S        0.10997    0.48430    0.52158    1.000
    S9       S        0.54056    0.53770    0.01085    1.000
    O35      O        0.53640    0.67610    0.16300    1.000
    C44      C        0.08460    0.56570    0.04160    1.000
    H14      H        0.05000    0.62460    0.06340    1.000
    C45      C        0.46720    0.54530    0.07600    1.000
    C46      C        0.07460    0.50730    0.96920    1.000
    H15      H        0.03240    0.52290    0.93810    1.000
    C47      C        0.13290    0.42670    0.95040    1.000
    C48      C        0.47750    0.61110    0.14960    1.000
    C49      C        0.40350    0.48300    0.05030    1.000
    H16      H        0.35810    0.47670    0.07800    1.000
    C50      C        0.17380    0.41170    0.58330    1.000
    C51      C        0.24550    0.40760    0.55350    1.000
    H17      H        0.28780    0.37320    0.57900    1.000
    O36      O        0.47060    0.34680    0.82950    1.000
    C52      C        0.48380    0.44970    0.94880    1.000
    C53      C        0.41330    0.42880    0.97710    1.000
    H18      H        0.37490    0.38340    0.95110    1.000
    C54      C        0.51670    0.40480    0.87470    1.000
    Er7      Er       0.67854    0.37987    0.77263    1.000
    Er8      Er       0.97908    0.34113    0.75839    1.000
    O37      O        0.57900    0.39510    0.69550    1.000
    O38      O        0.41450    0.57230    0.36280    1.000
    O39      O        0.75220    0.44900    0.66870    1.000
    O40      O        0.80240    0.72010    0.36840    1.000
    O41      O        0.78410    0.43720    0.83250    1.000
    C55      C        0.82040    0.43220    0.65200    1.000
    O42      O        0.87020    0.37970    0.69560    1.000
    O43      O        0.90710    0.41190    0.86460    1.000
    C56      C        0.83900    0.43830    0.87790    1.000
    C57      C        0.82000    0.49430    0.95460    1.000
    C58      C        0.75130    0.53910    0.98010    1.000
    H19      H        0.70630    0.53470    0.95150    1.000
    C59      C        0.84860    0.47460    0.57620    1.000
    S10      S        0.79749    0.57890    0.51899    1.000
    O44      O        0.92590    0.61550    0.17030    1.000
    C60      C        0.86110    0.65430    0.37890    1.000
    O45      O        0.80840    0.69070    0.20140    1.000
    O46      O        0.91630    0.64720    0.33340    1.000
    C61      C        0.85530    0.63340    0.15770    1.000
    S11      S        0.89003    0.51570    0.02158    1.000
    S12      S        0.45944    0.46230    0.51085    1.000
    O47      O        0.46360    0.32390    0.66300    1.000
    C62      C        0.91540    0.43430    0.54160    1.000
    H20      H        0.95000    0.37540    0.56340    1.000
    C63      C        0.53280    0.45470    0.57600    1.000
    C64      C        0.92540    0.49270    0.46920    1.000
    H21      H        0.96760    0.47710    0.43810    1.000
    C65      C        0.86710    0.57330    0.45040    1.000
    C66      C        0.52250    0.38890    0.64960    1.000
    C67      C        0.59650    0.51700    0.55030    1.000
    H22      H        0.64190    0.52330    0.57800    1.000
    C68      C        0.82620    0.58830    0.08330    1.000
    C69      C        0.75450    0.59240    0.05350    1.000
    H23      H        0.71220    0.62680    0.07900    1.000
    O48      O        0.52940    0.65320    0.32950    1.000
    C70      C        0.51620    0.55030    0.44880    1.000
    C71      C        0.58670    0.57120    0.47710    1.000
    H24      H        0.62510    0.61660    0.45110    1.000
    C72      C        0.48330    0.59520    0.37470    1.000
