# CIF file generated by openbabel 3.1.0, see https://openbabel.org
data_I
_chemical_name_common 'DUXKUD_clean'
_cell_length_a 10.1919
_cell_length_b 13.528
_cell_length_c 13.528
_cell_angle_alpha 104.002
_cell_angle_beta 96.181
_cell_angle_gamma 83.819
_space_group_name_H-M_alt 'P 1'
_space_group_name_Hall 'P 1'
loop_
    _symmetry_equiv_pos_as_xyz
    x,y,z
loop_
    _atom_site_label
    _atom_site_type_symbol
    _atom_site_fract_x
    _atom_site_fract_y
    _atom_site_fract_z
    _atom_site_occupancy
    U1       U        0.75000    0.64890    0.64890    1.000
    U2       U        0.25000    0.35110    0.35110    1.000
    H1       H        0.39910    0.31090    0.74950    1.000
    H2       H        0.80750    0.42700    0.89380    1.000
    H3       H        0.74070    0.42000    0.99080    1.000
    H4       H        0.61280    0.51040    0.83280    1.000
    H5       H        0.54590    0.51320    0.93300    1.000
    H6       H        0.62670    0.32950    0.79390    1.000
    H7       H        0.55560    0.33390    0.89230    1.000
    H8       H        0.33750    0.49920    0.87280    1.000
    H9       H        0.23590    0.43450    0.79490    1.000
    H10      H        0.62300    0.64450    0.04550    1.000
    H11      H        0.74830    0.68820    0.11240    1.000
    H12      H        0.73170    0.63630    0.88570    1.000
    H13      H        0.83600    0.69510    0.96610    1.000
    H14      H        0.52660    0.41020    0.66760    1.000
    H15      H        0.41360    0.49440    0.70760    1.000
    H16      H        0.10090    0.74950    0.31090    1.000
    H17      H        0.69250    0.89380    0.42700    1.000
    H18      H        0.75930    0.99080    0.42000    1.000
    H19      H        0.88720    0.83280    0.51040    1.000
    H20      H        0.95410    0.93300    0.51320    1.000
    H21      H        0.87330    0.79390    0.32950    1.000
    H22      H        0.94440    0.89230    0.33390    1.000
    H23      H        0.16250    0.87280    0.49920    1.000
    H24      H        0.26410    0.79490    0.43450    1.000
    H25      H        0.87700    0.04550    0.64450    1.000
    H26      H        0.75170    0.11240    0.68820    1.000
    H27      H        0.76830    0.88570    0.63630    1.000
    H28      H        0.66400    0.96610    0.69510    1.000
    H29      H        0.97340    0.66760    0.41020    1.000
    H30      H        0.08640    0.70760    0.49440    1.000
    H31      H        0.60090    0.68910    0.25050    1.000
    H32      H        0.19250    0.57300    0.10620    1.000
    H33      H        0.25930    0.58000    0.00920    1.000
    H34      H        0.38720    0.48960    0.16720    1.000
    H35      H        0.45410    0.48680    0.06700    1.000
    H36      H        0.37330    0.67050    0.20610    1.000
    H37      H        0.44440    0.66610    0.10770    1.000
    H38      H        0.66250    0.50080    0.12720    1.000
    H39      H        0.76410    0.56550    0.20510    1.000
    H40      H        0.37700    0.35550    0.95450    1.000
    H41      H        0.25170    0.31180    0.88760    1.000
    H42      H        0.26830    0.36370    0.11430    1.000
    H43      H        0.16400    0.30490    0.03390    1.000
    H44      H        0.47340    0.58980    0.33240    1.000
    H45      H        0.58640    0.50560    0.29240    1.000
    H46      H        0.89910    0.25050    0.68910    1.000
    H47      H        0.30750    0.10620    0.57300    1.000
    H48      H        0.24070    0.00920    0.58000    1.000
    H49      H        0.11280    0.16720    0.48960    1.000
    H50      H        0.04590    0.06700    0.48680    1.000
    H51      H        0.12670    0.20610    0.67050    1.000
    H52      H        0.05560    0.10770    0.66610    1.000
    H53      H        0.83750    0.12720    0.50080    1.000
    H54      H        0.73590    0.20510    0.56550    1.000
    H55      H        0.12300    0.95450    0.35550    1.000
    H56      H        0.24830    0.88760    0.31180    1.000
    H57      H        0.23170    0.11430    0.36370    1.000
    H58      H        0.33600    0.03390    0.30490    1.000
    H59      H        0.02660    0.33240    0.58980    1.000
    H60      H        0.91360    0.29240    0.50560    1.000
    C1       C        0.74490    0.46210    0.94250    1.000
    C2       C        0.60810    0.47400    0.88580    1.000
    C3       C        0.56180    0.36890    0.83850    1.000
    C4       C        0.31600    0.43020    0.84000    1.000
    C5       C        0.70780    0.62570    0.07910    1.000
    C6       C        0.81400    0.62790    0.92730    1.000
    C7       C        0.92340    0.58050    0.85750    1.000
    C8       C        0.43670    0.42120    0.68780    1.000
    C9       C        0.34320    0.37390    0.59830    1.000
    C10      C        0.75510    0.94250    0.46210    1.000
    C11      C        0.89190    0.88580    0.47400    1.000
    C12      C        0.93820    0.83850    0.36890    1.000
    C13      C        0.18400    0.84000    0.43020    1.000
    C14      C        0.79220    0.07910    0.62570    1.000
    C15      C        0.68600    0.92730    0.62790    1.000
    C16      C        0.57660    0.85750    0.58050    1.000
    C17      C        0.06330    0.68780    0.42120    1.000
    C18      C        0.15680    0.59830    0.37390    1.000
    C19      C        0.25510    0.53790    0.05750    1.000
    C20      C        0.39190    0.52600    0.11420    1.000
    C21      C        0.43820    0.63110    0.16150    1.000
    C22      C        0.68400    0.56980    0.16000    1.000
    C23      C        0.29220    0.37430    0.92090    1.000
    C24      C        0.18600    0.37210    0.07270    1.000
    C25      C        0.07660    0.41950    0.14250    1.000
    C26      C        0.56330    0.57880    0.31220    1.000
    C27      C        0.65680    0.62610    0.40170    1.000
    C28      C        0.24490    0.05750    0.53790    1.000
    C29      C        0.10810    0.11420    0.52600    1.000
    C30      C        0.06180    0.16150    0.63110    1.000
    C31      C        0.81600    0.16000    0.56980    1.000
    C32      C        0.20780    0.92090    0.37430    1.000
    C33      C        0.31400    0.07270    0.37210    1.000
    C34      C        0.42340    0.14250    0.41950    1.000
    C35      C        0.93670    0.31220    0.57880    1.000
    C36      C        0.84320    0.40170    0.62610    1.000
    N1       N        0.79430    0.56390    0.99970    1.000
    N2       N        0.42890    0.37410    0.77790    1.000
    N3       N        0.70570    0.99970    0.56390    1.000
    N4       N        0.07110    0.77790    0.37410    1.000
    N5       N        0.20570    0.43610    0.00030    1.000
    N6       N        0.57110    0.62590    0.22210    1.000
    N7       N        0.29430    0.00030    0.43610    1.000
    N8       N        0.92890    0.22210    0.62590    1.000
    O1       O        0.91510    0.60910    0.77430    1.000
    O2       O        0.01420    0.52410    0.88630    1.000
    O3       O        0.34380    0.41328    0.52112    1.000
    O4       O        0.28060    0.30410    0.60510    1.000
    O5       O        0.58490    0.77430    0.60910    1.000
    O6       O        0.48580    0.88630    0.52410    1.000
    O7       O        0.15620    0.52112    0.41328    1.000
    O8       O        0.21940    0.60510    0.30410    1.000
    O9       O        0.08490    0.39090    0.22570    1.000
    O10      O        0.98580    0.47590    0.11370    1.000
    O11      O        0.65620    0.58672    0.47888    1.000
    O12      O        0.71940    0.69590    0.39490    1.000
    O13      O        0.41510    0.22570    0.39090    1.000
    O14      O        0.51420    0.11370    0.47590    1.000
    O15      O        0.84380    0.47888    0.58672    1.000
    O16      O        0.78060    0.39490    0.69590    1.000
