# CIF file generated by openbabel 3.1.0, see https://openbabel.org
data_I
_chemical_name_common 'OXITOF_clean'
_cell_length_a 7.331
_cell_length_b 11.901
_cell_length_c 15.838
_cell_angle_alpha 103.5
_cell_angle_beta 100.46
_cell_angle_gamma 104.75
_space_group_name_H-M_alt 'P 1'
_space_group_name_Hall 'P 1'
loop_
    _symmetry_equiv_pos_as_xyz
    x,y,z
loop_
    _atom_site_label
    _atom_site_type_symbol
    _atom_site_fract_x
    _atom_site_fract_y
    _atom_site_fract_z
    _atom_site_occupancy
    Co1      Co       0.02743    0.95281    0.33490    1.000
    Co2      Co       0.97257    0.04719    0.66510    1.000
    Co3      Co       0.50000    0.00000    0.50000    1.000
    Co4      Co       0.00000    0.00000    0.00000    1.000
    H1       H        0.79280    0.25640    0.42290    1.000
    H2       H        0.03870    0.58380    0.35250    1.000
    H3       H        0.58950    0.30950    0.14370    1.000
    H4       H        0.69510    0.61700    0.38650    1.000
    H5       H        0.91450    0.39600    0.22300    1.000
    H6       H        0.48160    0.44250    0.39580    1.000
    H7       H        0.20720    0.74360    0.57710    1.000
    H8       H        0.96130    0.41620    0.64750    1.000
    H9       H        0.41050    0.69050    0.85630    1.000
    H10      H        0.30490    0.38300    0.61350    1.000
    H11      H        0.08550    0.60400    0.77700    1.000
    H12      H        0.51840    0.55750    0.60420    1.000
    C1       C        0.88980    0.33580    0.33260    1.000
    C2       C        0.23540    0.49420    0.37440    1.000
    C3       C        0.75200    0.26660    0.36690    1.000
    C4       C        0.17080    0.59150    0.36120    1.000
    C5       C        0.55550    0.21250    0.31950    1.000
    C6       C        0.30130    0.70020    0.36080    1.000
    C7       C        0.49300    0.22980    0.23500    1.000
    C8       C        0.50130    0.71080    0.36990    1.000
    C9       C        0.63030    0.29880    0.19960    1.000
    C10      C        0.56460    0.61150    0.38150    1.000
    C11      C        0.82590    0.35110    0.24730    1.000
    C12      C        0.43590    0.50550    0.38570    1.000
    C13      C        0.41960    0.13280    0.35860    1.000
    C14      C        0.21470    0.80000    0.34770    1.000
    C15      C        0.28520    0.17890    0.17830    1.000
    C16      C        0.65010    0.82620    0.36990    1.000
    C17      C        0.09990    0.37910    0.38190    1.000
    C18      C        0.11020    0.66420    0.66740    1.000
    C19      C        0.76460    0.50580    0.62560    1.000
    C20      C        0.24800    0.73340    0.63310    1.000
    C21      C        0.82920    0.40850    0.63880    1.000
    C22      C        0.44450    0.78750    0.68050    1.000
    C23      C        0.69870    0.29980    0.63920    1.000
    C24      C        0.50700    0.77020    0.76500    1.000
    C25      C        0.49870    0.28920    0.63010    1.000
    C26      C        0.36970    0.70120    0.80040    1.000
    C27      C        0.43540    0.38850    0.61850    1.000
    C28      C        0.17410    0.64890    0.75270    1.000
    C29      C        0.56410    0.49450    0.61430    1.000
    C30      C        0.58040    0.86720    0.64140    1.000
    C31      C        0.78530    0.20000    0.65230    1.000
    C32      C        0.71480    0.82110    0.82170    1.000
    C33      C        0.34990    0.17380    0.63010    1.000
    C34      C        0.90010    0.62090    0.61810    1.000
    O1       O        0.48310    0.13420    0.43900    1.000
    O2       O        0.12190    0.79360    0.27060    1.000
    O3       O        0.25500    0.06780    0.30620    1.000
    O4       O        0.22020    0.88570    0.41670    1.000
    O5       O        0.24870    0.08450    0.11020    1.000
    O6       O        0.62370    0.92870    0.39870    1.000
    O7       O        0.16770    0.23530    0.19590    1.000
    O8       O        0.79190    0.81230    0.33770    1.000
    O9       O        0.16500    0.32240    0.42950    1.000
    O10      O        0.51690    0.86580    0.56100    1.000
    O11      O        0.87810    0.20640    0.72940    1.000
    O12      O        0.74500    0.93220    0.69380    1.000
    O13      O        0.77980    0.11430    0.58330    1.000
    O14      O        0.75130    0.91550    0.88980    1.000
    O15      O        0.37630    0.07130    0.60130    1.000
    O16      O        0.83230    0.76470    0.80410    1.000
    O17      O        0.20810    0.18770    0.66230    1.000
    O18      O        0.83500    0.67760    0.57050    1.000
