# CIF file generated by openbabel 3.1.0, see https://openbabel.org
data_I
_chemical_name_common 'LEDHIN_clean'
_cell_length_a 8.7159
_cell_length_b 10.9737
_cell_length_c 12.323
_cell_angle_alpha 68.448
_cell_angle_beta 86.196
_cell_angle_gamma 79.605
_space_group_name_H-M_alt 'P 1'
_space_group_name_Hall 'P 1'
loop_
    _symmetry_equiv_pos_as_xyz
    x,y,z
loop_
    _atom_site_label
    _atom_site_type_symbol
    _atom_site_fract_x
    _atom_site_fract_y
    _atom_site_fract_z
    _atom_site_occupancy
    Dy1      Dy       0.71289    0.97940    0.44408    1.000
    Dy2      Dy       0.28711    0.02060    0.55592    1.000
    H1       H        0.21830    0.62720    0.76210    1.000
    H2       H        0.00250    0.31360    0.84120    1.000
    H3       H        0.86610    0.63940    0.56110    1.000
    H4       H        0.95260    0.22650    0.68680    1.000
    H5       H        0.78230    0.11490    0.64100    1.000
    H6       H        0.43340    0.41800    0.61650    1.000
    H7       H        0.60690    0.53390    0.65370    1.000
    H8       H        0.00890    0.33140    0.02500    1.000
    H9       H        0.12160    0.21530    0.20520    1.000
    H10      H        0.53410    0.31190    0.07250    1.000
    H11      H        0.41970    0.43140    0.89260    1.000
    H12      H        0.78170    0.37280    0.23790    1.000
    H13      H        0.99750    0.68640    0.15880    1.000
    H14      H        0.13390    0.36060    0.43890    1.000
    H15      H        0.04740    0.77350    0.31320    1.000
    H16      H        0.21770    0.88510    0.35900    1.000
    H17      H        0.56660    0.58200    0.38350    1.000
    H18      H        0.39310    0.46610    0.34630    1.000
    H19      H        0.99110    0.66860    0.97500    1.000
    H20      H        0.87840    0.78470    0.79480    1.000
    H21      H        0.46590    0.68810    0.92750    1.000
    H22      H        0.58030    0.56860    0.10740    1.000
    C1       C        0.05640    0.79540    0.57700    1.000
    C2       C        0.04470    0.65420    0.65000    1.000
    C3       C        0.14070    0.58720    0.74740    1.000
    C4       C        0.12090    0.46040    0.82280    1.000
    C5       C        0.01170    0.40030    0.79390    1.000
    C6       C        0.91500    0.46430    0.69670    1.000
    C7       C        0.93120    0.59360    0.62530    1.000
    C8       C        0.80020    0.39390    0.67240    1.000
    C9       C        0.84910    0.26670    0.67000    1.000
    C10      C        0.74690    0.19920    0.64310    1.000
    C11      C        0.59150    0.25690    0.61920    1.000
    C12      C        0.53860    0.38110    0.62730    1.000
    C13      C        0.64240    0.44970    0.65140    1.000
    C14      C        0.48430    0.18790    0.58190    1.000
    C15      C        0.20170    0.39180    0.93750    1.000
    C16      C        0.11500    0.32750    0.03390    1.000
    C17      C        0.18240    0.25780    0.14250    1.000
    C18      C        0.33960    0.25110    0.15830    1.000
    C19      C        0.42810    0.31600    0.06320    1.000
    C20      C        0.35960    0.38670    0.95470    1.000
    C21      C        0.40790    0.17260    0.27900    1.000
    C22      C        0.94360    0.20460    0.42300    1.000
    C23      C        0.95530    0.34580    0.35000    1.000
    C24      C        0.85930    0.41280    0.25260    1.000
    C25      C        0.87910    0.53960    0.17720    1.000
    C26      C        0.98830    0.59970    0.20610    1.000
    C27      C        0.08500    0.53570    0.30330    1.000
    C28      C        0.06880    0.40640    0.37470    1.000
    C29      C        0.19980    0.60610    0.32760    1.000
    C30      C        0.15090    0.73330    0.33000    1.000
    C31      C        0.25310    0.80080    0.35690    1.000
    C32      C        0.40850    0.74310    0.38080    1.000
    C33      C        0.46140    0.61890    0.37270    1.000
    C34      C        0.35760    0.55030    0.34860    1.000
    C35      C        0.51570    0.81210    0.41810    1.000
    C36      C        0.79830    0.60820    0.06250    1.000
    C37      C        0.88500    0.67250    0.96610    1.000
    C38      C        0.81760    0.74220    0.85750    1.000
    C39      C        0.66040    0.74890    0.84170    1.000
    C40      C        0.57190    0.68400    0.93680    1.000
    C41      C        0.64040    0.61330    0.04530    1.000
    C42      C        0.59210    0.82740    0.72100    1.000
    O1       O        0.95480    0.86060    0.50020    1.000
    O2       O        0.16950    0.83960    0.59620    1.000
    O3       O        0.34010    0.21390    0.59240    1.000
    O4       O        0.54230    0.09940    0.54060    1.000
    O5       O        0.31120    0.15320    0.36060    1.000
    O6       O        0.55210    0.13430    0.28710    1.000
    O7       O        0.04520    0.13940    0.49980    1.000
    O8       O        0.83050    0.16040    0.40380    1.000
    O9       O        0.65990    0.78610    0.40760    1.000
    O10      O        0.45770    0.90060    0.45940    1.000
    O11      O        0.68880    0.84680    0.63940    1.000
    O12      O        0.44790    0.86570    0.71290    1.000
