# CIF file generated by openbabel 3.1.0, see https://openbabel.org
data_I
_chemical_name_common 'QUVDUH_clean'
_cell_length_a 11.358
_cell_length_b 14.829
_cell_length_c 16.325
_cell_angle_alpha 90
_cell_angle_beta 90
_cell_angle_gamma 90
_space_group_name_H-M_alt 'P 1'
_space_group_name_Hall 'P 1'
loop_
    _symmetry_equiv_pos_as_xyz
    x,y,z
loop_
    _atom_site_label
    _atom_site_type_symbol
    _atom_site_fract_x
    _atom_site_fract_y
    _atom_site_fract_z
    _atom_site_occupancy
    Y1       Y        0.27555    0.74497    0.43134    1.000
    Y2       Y        0.23280    0.80503    0.05452    1.000
    Y3       Y        0.22445    0.25503    0.93134    1.000
    Y4       Y        0.26720    0.19497    0.55452    1.000
    Y5       Y        0.72445    0.24497    0.06866    1.000
    Y6       Y        0.76720    0.30503    0.44548    1.000
    Y7       Y        0.77555    0.75503    0.56866    1.000
    Y8       Y        0.73280    0.69497    0.94548    1.000
    P1       P        0.25660    0.81774    0.83253    1.000
    P2       P        0.32140    0.94820    0.54687    1.000
    P3       P        0.24340    0.18226    0.33253    1.000
    P4       P        0.17860    0.05180    0.04687    1.000
    P5       P        0.74340    0.31774    0.66747    1.000
    P6       P        0.67860    0.44820    0.95313    1.000
    P7       P        0.75660    0.68226    0.16747    1.000
    P8       P        0.82140    0.55180    0.45313    1.000
    H1       H        0.39750    0.74740    0.79720    1.000
    H2       H        0.47680    0.00470    0.53290    1.000
    H3       H        0.23640    0.00670    0.69410    1.000
    H4       H        0.87060    0.15290    0.74070    1.000
    H5       H        0.33370    0.95830    0.80390    1.000
    H6       H        0.20040    0.96720    0.82600    1.000
    H7       H        0.39060    0.90240    0.67690    1.000
    H8       H        0.29150    0.83620    0.64770    1.000
    H9       H        0.09140    0.85910    0.68580    1.000
    H10      H        0.08930    0.94030    0.62430    1.000
    H11      H        0.99720    0.87820    0.81990    1.000
    H12      H        0.87000    0.96370    0.90480    1.000
    H13      H        0.80040    0.09910    0.86000    1.000
    H14      H        0.00500    0.08100    0.66170    1.000
    H15      H        0.10250    0.25260    0.29720    1.000
    H16      H        0.02320    0.99530    0.03290    1.000
    H17      H        0.26360    0.99330    0.19410    1.000
    H18      H        0.62940    0.84710    0.24070    1.000
    H19      H        0.16630    0.04170    0.30390    1.000
    H20      H        0.29960    0.03280    0.32600    1.000
    H21      H        0.10940    0.09760    0.17690    1.000
    H22      H        0.20850    0.16380    0.14770    1.000
    H23      H        0.40860    0.14090    0.18580    1.000
    H24      H        0.41070    0.05970    0.12430    1.000
    H25      H        0.50280    0.12180    0.31990    1.000
    H26      H        0.63000    0.03630    0.40480    1.000
    H27      H        0.69960    0.90090    0.36000    1.000
    H28      H        0.49500    0.91900    0.16170    1.000
    H29      H        0.60250    0.24740    0.70280    1.000
    H30      H        0.52320    0.50470    0.96710    1.000
    H31      H        0.76360    0.50670    0.80590    1.000
    H32      H        0.12940    0.65290    0.75930    1.000
    H33      H        0.66630    0.45830    0.69610    1.000
    H34      H        0.79960    0.46720    0.67400    1.000
    H35      H        0.60940    0.40240    0.82310    1.000
    H36      H        0.70850    0.33620    0.85230    1.000
    H37      H        0.90860    0.35910    0.81420    1.000
    H38      H        0.91070    0.44030    0.87570    1.000
    H39      H        0.00280    0.37820    0.68010    1.000
    H40      H        0.13000    0.46370    0.59520    1.000
    H41      H        0.19960    0.59910    0.64000    1.000
    H42      H        0.99500    0.58100    0.83830    1.000
    H43      H        0.89750    0.75260    0.20280    1.000
    H44      H        0.97680    0.49530    0.46710    1.000
    H45      H        0.73640    0.49330    0.30590    1.000
    H46      H        0.37060    0.34710    0.25930    1.000
    H47      H        0.83370    0.54170    0.19610    1.000
    H48      H        0.70040    0.53280    0.17400    1.000
    H49      H        0.89060    0.59760    0.32310    1.000
    H50      H        0.79150    0.66380    0.35230    1.000
    H51      H        0.59140    0.64090    0.31420    1.000
    H52      H        0.58930    0.55970    0.37570    1.000
    H53      H        0.49720    0.62180    0.18010    1.000
    H54      H        0.37000    0.53630    0.09520    1.000
    H55      H        0.30040    0.40090    0.14000    1.000
    H56      H        0.50500    0.41900    0.33830    1.000
    C1       C        0.25640    0.93270    0.79390    1.000
    C2       C        0.31340    0.89920    0.65160    1.000
    C3       C        0.10230    0.92380    0.68110    1.000
    C4       C        0.01250    0.97020    0.73320    1.000
    C5       C        0.97320    0.93540    0.80370    1.000
    C6       C        0.89400    0.98650    0.85440    1.000
    C7       C        0.85480    0.06700    0.82890    1.000
    C8       C        0.97580    0.05510    0.70940    1.000
    C9       C        0.50190    0.73970    0.54340    1.000
    C10      C        0.55050    0.76320    0.45900    1.000
    C11      C        0.26180    0.82390    0.25040    1.000
    C12      C        0.24640    0.72260    0.23710    1.000
    C13      C        0.45840    0.70260    0.98780    1.000
    C14      C        0.50580    0.79740    0.00850    1.000
    C15      C        0.24360    0.06730    0.29390    1.000
    C16      C        0.18660    0.10080    0.15160    1.000
    C17      C        0.39770    0.07620    0.18110    1.000
    C18      C        0.48750    0.02980    0.23320    1.000
    C19      C        0.52680    0.06460    0.30370    1.000
    C20      C        0.60600    0.01350    0.35440    1.000
    C21      C        0.64520    0.93300    0.32890    1.000
    C22      C        0.52420    0.94490    0.20940    1.000
    C23      C        0.99810    0.26030    0.04340    1.000
    C24      C        0.94950    0.23680    0.95900    1.000
    C25      C        0.23820    0.17610    0.75040    1.000
    C26      C        0.25360    0.27740    0.73710    1.000
    C27      C        0.04160    0.29740    0.48780    1.000
    C28      C        0.99420    0.20260    0.50850    1.000
    C29      C        0.74360    0.43270    0.70610    1.000
    C30      C        0.68660    0.39920    0.84840    1.000
    C31      C        0.89770    0.42380    0.81890    1.000
    C32      C        0.98750    0.47020    0.76680    1.000
    C33      C        0.02680    0.43540    0.69630    1.000
    C34      C        0.10600    0.48650    0.64560    1.000
    C35      C        0.14520    0.56700    0.67110    1.000
    C36      C        0.02420    0.55510    0.79060    1.000
    C37      C        0.49810    0.23970    0.95660    1.000
    C38      C        0.44950    0.26320    0.04100    1.000
    C39      C        0.73820    0.32390    0.24960    1.000
    C40      C        0.75360    0.22260    0.26290    1.000
    C41      C        0.54160    0.20260    0.51220    1.000
    C42      C        0.49420    0.29740    0.49150    1.000
    C43      C        0.75640    0.56730    0.20610    1.000
    C44      C        0.81340    0.60080    0.34840    1.000
    C45      C        0.60230    0.57620    0.31890    1.000
    C46      C        0.51250    0.52980    0.26680    1.000
    C47      C        0.47320    0.56460    0.19630    1.000
    C48      C        0.39400    0.51350    0.14560    1.000
    C49      C        0.35480    0.43300    0.17110    1.000
    C50      C        0.47580    0.44490    0.29060    1.000
    C51      C        0.00190    0.76030    0.45660    1.000
    C52      C        0.05050    0.73680    0.54100    1.000
    C53      C        0.76180    0.67610    0.74960    1.000
    C54      C        0.74640    0.77740    0.76290    1.000
    C55      C        0.95840    0.79740    0.01220    1.000
    C56      C        0.00580    0.70260    0.99150    1.000
    N1       N        0.22720    0.94680    0.70420    1.000
    N2       N        0.89560    0.10110    0.75700    1.000
    N3       N        0.27280    0.05320    0.20420    1.000
    N4       N        0.60440    0.89890    0.25700    1.000
    N5       N        0.77280    0.44680    0.79580    1.000
    N6       N        0.10440    0.60110    0.74300    1.000
    N7       N        0.72720    0.55320    0.29580    1.000
    N8       N        0.39560    0.39890    0.24300    1.000
    O1       O        0.17710    0.76070    0.78210    1.000
    O2       O        0.22710    0.82920    0.92030    1.000
    O3       O        0.38950    0.78960    0.82910    1.000
    O4       O        0.26460    0.03970    0.54990    1.000
    O5       O        0.26810    0.88430    0.48750    1.000
    O6       O        0.45440    0.95230    0.53020    1.000
    O7       O        0.39350    0.72560    0.55070    1.000
    O8       O        0.57750    0.73480    0.59920    1.000
    O9       O        0.65470    0.77830    0.45200    1.000
    O10      O        0.47420    0.76280    0.39920    1.000
    O11      O        0.27760    0.84990    0.32190    1.000
    O12      O        0.25990    0.86950    0.18650    1.000
    O13      O        0.22620    0.69700    0.16520    1.000
    O14      O        0.24930    0.67320    0.30070    1.000
    O15      O        0.53080    0.65060    0.95120    1.000
    O16      O        0.35750    0.68440    0.00680    1.000
    O17      O        0.43430    0.84710    0.04320    1.000
    O18      O        0.60660    0.81590    0.98680    1.000
    O19      O        0.32290    0.23930    0.28210    1.000
    O20      O        0.27290    0.17080    0.42030    1.000
    O21      O        0.11050    0.21040    0.32910    1.000
    O22      O        0.23540    0.96030    0.04990    1.000
    O23      O        0.23190    0.11570    0.98750    1.000
    O24      O        0.04560    0.04770    0.03020    1.000
    O25      O        0.10650    0.27440    0.05070    1.000
    O26      O        0.92250    0.26520    0.09920    1.000
    O27      O        0.84530    0.22170    0.95200    1.000
    O28      O        0.02580    0.23720    0.89920    1.000
    O29      O        0.22240    0.15010    0.82190    1.000
    O30      O        0.24010    0.13050    0.68650    1.000
    O31      O        0.27380    0.30300    0.66520    1.000
    O32      O        0.25070    0.32680    0.80070    1.000
    O33      O        0.96920    0.34940    0.45120    1.000
    O34      O        0.14250    0.31560    0.50680    1.000
    O35      O        0.06570    0.15290    0.54320    1.000
    O36      O        0.89340    0.18410    0.48680    1.000
    O37      O        0.82290    0.26070    0.71790    1.000
    O38      O        0.77290    0.32920    0.57970    1.000
    O39      O        0.61050    0.28960    0.67090    1.000
    O40      O        0.73540    0.53970    0.95010    1.000
    O41      O        0.73190    0.38430    0.01250    1.000
    O42      O        0.54560    0.45230    0.96980    1.000
    O43      O        0.60650    0.22560    0.94930    1.000
    O44      O        0.42250    0.23480    0.90080    1.000
    O45      O        0.34530    0.27830    0.04800    1.000
    O46      O        0.52580    0.26280    0.10080    1.000
    O47      O        0.72240    0.34990    0.17810    1.000
    O48      O        0.74010    0.36950    0.31350    1.000
    O49      O        0.77380    0.19700    0.33480    1.000
    O50      O        0.75070    0.17320    0.19930    1.000
    O51      O        0.46920    0.15060    0.54880    1.000
    O52      O        0.64250    0.18440    0.49320    1.000
    O53      O        0.56570    0.34710    0.45680    1.000
    O54      O        0.39340    0.31590    0.51320    1.000
    O55      O        0.67710    0.73930    0.21790    1.000
    O56      O        0.72710    0.67080    0.07970    1.000
    O57      O        0.88950    0.71040    0.17090    1.000
    O58      O        0.76460    0.46030    0.45010    1.000
    O59      O        0.76810    0.61570    0.51250    1.000
    O60      O        0.95440    0.54770    0.46980    1.000
    O61      O        0.89350    0.77440    0.44930    1.000
    O62      O        0.07750    0.76520    0.40080    1.000
    O63      O        0.15470    0.72170    0.54800    1.000
    O64      O        0.97420    0.73720    0.60080    1.000
    O65      O        0.77760    0.65010    0.67810    1.000
    O66      O        0.75990    0.63050    0.81350    1.000
    O67      O        0.72620    0.80300    0.83480    1.000
    O68      O        0.74930    0.82680    0.69930    1.000
    O69      O        0.03080    0.84940    0.04880    1.000
    O70      O        0.85750    0.81560    0.99320    1.000
    O71      O        0.93430    0.65290    0.95680    1.000
    O72      O        0.10660    0.68410    0.01320    1.000
