# CIF file generated by openbabel 3.1.0, see https://openbabel.org
data_I
_chemical_name_common 'ja4015666_si_002_clean'
_cell_length_a 9.932
_cell_length_b 18.818
_cell_length_c 20.335
_cell_angle_alpha 88.731
_cell_angle_beta 83.542
_cell_angle_gamma 86.247
_space_group_name_H-M_alt 'P 1'
_space_group_name_Hall 'P 1'
loop_
    _symmetry_equiv_pos_as_xyz
    x,y,z
loop_
    _atom_site_label
    _atom_site_type_symbol
    _atom_site_fract_x
    _atom_site_fract_y
    _atom_site_fract_z
    _atom_site_occupancy
    Cd1      Cd       0.88823    0.04729    0.96163    1.000
    Cd2      Cd       0.40103    0.45878    0.45717    1.000
    Cd3      Cd       0.59897    0.54122    0.54283    1.000
    Cd4      Cd       0.11177    0.95271    0.03837    1.000
    H1       H        0.26150    0.67590    0.67800    1.000
    H2       H        0.39480    0.05530    0.94680    1.000
    H3       H        0.39370    0.81620    0.17460    1.000
    H4       H        0.57990    0.38510    0.70620    1.000
    H5       H        0.94240    0.44330    0.43560    1.000
    H6       H        0.10620    0.19170    0.27640    1.000
    H7       H        0.84850    0.69310    0.69600    1.000
    H8       H        0.21490    0.70600    0.79430    1.000
    H9       H        0.54440    0.30380    0.79390    1.000
    H10      H        0.45560    0.69620    0.20610    1.000
    H11      H        0.30830    0.19770    0.69350    1.000
    H12      H        0.78510    0.29400    0.20570    1.000
    H13      H        0.42010    0.61490    0.29380    1.000
    H14      H        0.15150    0.30690    0.30400    1.000
    H15      H        0.66720    0.71970    0.39220    1.000
    H16      H        0.78960    0.21200    0.12810    1.000
    H17      H        0.05760    0.55670    0.56440    1.000
    H18      H        0.60630    0.18380    0.82540    1.000
    H19      H        0.21040    0.78800    0.87190    1.000
    H20      H        0.60520    0.94470    0.05320    1.000
    H21      H        0.11190    0.10990    0.19610    1.000
    H22      H        0.69170    0.80230    0.30650    1.000
    H23      H        0.78820    0.82550    0.18810    1.000
    H24      H        0.21180    0.17450    0.81190    1.000
    H25      H        0.33280    0.28030    0.60780    1.000
    H26      H        0.73850    0.32410    0.32200    1.000
    H27      H        0.89380    0.80830    0.72360    1.000
    H28      H        0.88810    0.89010    0.80390    1.000
    C1       C        0.93150    0.67230    0.67640    1.000
    C2       C        0.59100    0.81280    0.19340    1.000
    C3       C        0.48030    0.39640    0.59620    1.000
    C4       C        0.95510    0.85220    0.80140    1.000
    C5       C        0.46070    0.34160    0.64830    1.000
    C6       C        0.82190    0.39040    0.38320    1.000
    C7       C        0.57520    0.75740    0.24710    1.000
    C8       C        0.52310    0.16380    0.83860    1.000
    C9       C        0.05110    0.84630    0.84790    1.000
    C10      C        0.47720    0.65220    0.29710    1.000
    C11      C        0.28170    0.11090    0.88310    1.000
    C12      C        0.06850    0.32770    0.32360    1.000
    C13      C        0.71830    0.88910    0.11690    1.000
    C14      C        0.52280    0.34780    0.70290    1.000
    C15      C        0.42480    0.24260    0.75290    1.000
    C16      C        0.36010    0.91160    0.08220    1.000
    C17      C        0.30940    0.57660    0.57980    1.000
    C18      C        0.39950    0.08830    0.91130    1.000
    C19      C        0.60050    0.91170    0.08870    1.000
    C20      C        0.37850    0.28530    0.64540    1.000
    C21      C        0.94890    0.15370    0.15210    1.000
    C22      C        0.50210    0.29790    0.75550    1.000
    C23      C        0.63720    0.76380    0.30290    1.000
    C24      C        0.70890    0.84020    0.16900    1.000
    C25      C        0.47690    0.83620    0.16140    1.000
    C26      C        0.63990    0.08840    0.91780    1.000
    C27      C        0.04200    0.90150    0.90080    1.000
    C28      C        0.53930    0.65840    0.35170    1.000
    C29      C        0.40900    0.18720    0.80660    1.000
    C30      C        0.85150    0.25600    0.20500    1.000
    C31      C        0.51750    0.11320    0.88820    1.000
    C32      C        0.49790    0.70210    0.24450    1.000
    C33      C        0.04490    0.14780    0.19860    1.000
    C34      C        0.80190    0.59510    0.60620    1.000
    C35      C        0.17810    0.60960    0.61680    1.000
    C36      C        0.94250    0.25310    0.25440    1.000
    C37      C        0.82070    0.33820    0.33470    1.000
    C38      C        0.05680    0.69170    0.69350    1.000
    C39      C        0.29110    0.15980    0.83100    1.000
    C40      C        0.06180    0.38050    0.37240    1.000
    C41      C        0.05760    0.59030    0.59800    1.000
    C42      C        0.94240    0.40970    0.40200    1.000
    C43      C        0.69060    0.42340    0.42020    1.000
    C44      C        0.51970    0.60360    0.40380    1.000
    C45      C        0.62150    0.71470    0.35460    1.000
    C46      C        0.95970    0.80370    0.75340    1.000
    C47      C        0.48250    0.88680    0.11180    1.000
    C48      C        0.04030    0.19630    0.24660    1.000
    C49      C        0.36280    0.23620    0.69710    1.000
    C50      C        0.14820    0.08640    0.90960    1.000
    C51      C        0.17930    0.66180    0.66530    1.000
    C52      C        0.94320    0.30830    0.30650    1.000
    C53      C        0.19810    0.40490    0.39380    1.000
    C54      C        0.14480    0.79220    0.84190    1.000
    C55      C        0.95800    0.09850    0.09920    1.000
    C56      C        0.93820    0.61950    0.62760    1.000
    C57      C        0.14850    0.74400    0.79500    1.000
    C58      C        0.85180    0.91360    0.09040    1.000
    C59      C        0.05750    0.74690    0.74560    1.000
    C60      C        0.85520    0.20780    0.15810    1.000
    O1       O        0.70130    0.63790    0.61520    1.000
    O2       O        0.73760    0.12810    0.91330    1.000
    O3       O        0.58280    0.40300    0.40220    1.000
    O4       O        0.86490    0.95050    0.03740    1.000
    O5       O        0.29720    0.53310    0.53590    1.000
    O6       O        0.70280    0.46690    0.46410    1.000
    O7       O        0.41720    0.59700    0.59780    1.000
    O8       O        0.04120    0.10460    0.88420    1.000
    O9       O        0.26240    0.87190    0.08670    1.000
    O10      O        0.80970    0.54920    0.56790    1.000
    O11      O        0.65550    0.03060    0.94840    1.000
    O12      O        0.29900    0.39090    0.34910    1.000
    O13      O        0.58650    0.61090    0.45850    1.000
    O14      O        0.44040    0.55720    0.40300    1.000
    O15      O        0.88300    0.11110    0.05440    1.000
    O16      O        0.70100    0.60910    0.65090    1.000
    O17      O        0.34450    0.96940    0.05160    1.000
    O18      O        0.55960    0.44280    0.59700    1.000
    O19      O        0.11700    0.88890    0.94560    1.000
    O20      O        0.05180    0.04900    0.10100    1.000
    O21      O        0.41350    0.38910    0.54150    1.000
    O22      O        0.13510    0.04950    0.96260    1.000
    O23      O        0.19030    0.45080    0.43210    1.000
    O24      O        0.29870    0.36210    0.38480    1.000
    O25      O        0.95880    0.89540    0.11580    1.000
    O26      O        0.94820    0.95100    0.89900    1.000
