# CIF file generated by openbabel 3.1.0, see https://openbabel.org
data_I
_chemical_name_common 'FURRUG_ion_b'
_cell_length_a 34.697
_cell_length_b 34.697
_cell_length_c 8.4057
_cell_angle_alpha 90
_cell_angle_beta 90
_cell_angle_gamma 120
_space_group_name_H-M_alt 'P 1'
_space_group_name_Hall 'P 1'
loop_
    _symmetry_equiv_pos_as_xyz
    x,y,z
loop_
    _atom_site_label
    _atom_site_type_symbol
    _atom_site_fract_x
    _atom_site_fract_y
    _atom_site_fract_z
    _atom_site_occupancy
    Ag1      Ag       0.86100    0.18287    0.49955    1.000
    O2       O        0.33293    0.34404    0.64793    1.000
    N3       N        0.80050    0.14370    0.35510    1.000
    N4       N        0.71800    0.92760    0.39600    1.000
    C5       C        0.78680    0.16480    0.25850    1.000
    H6       H        0.80430    0.19550    0.24860    1.000
    C7       C        0.41477    0.47663    0.50643    1.000
    H8       H        0.07303    0.82597    0.77367    1.000
    C9       C        0.38877    0.43173    0.51913    1.000
    H10      H        0.36217    0.41683    0.46343    1.000
    C11      C        0.73580    0.07530    0.28250    1.000
    C12      C        0.77560    0.09950    0.36410    1.000
    H13      H        0.78540    0.08420    0.42790    1.000
    C14      C        0.70650    0.02630    0.30410    1.000
    C15      C        0.72690    0.99760    0.31060    1.000
    C16      C        0.43147    0.34023    0.56513    1.000
    H17      H        0.44717    0.36673    0.50883    1.000
    C18      C        0.77990    0.97680    0.23590    1.000
    H19      H        0.47247    0.31593    0.51643    1.000
    C20      C        0.75580    0.93840    0.31940    1.000
    H21      H        0.76620    0.91840    0.32310    1.000
    C22      C        0.70360    0.95660    0.39030    1.000
    H23      H        0.67700    0.94940    0.44090    1.000
    C24      C        0.84240    0.25730    0.55850    1.000
    O25      O        0.16653    0.89737    0.32577    1.000
    O26      O        0.86020    0.25950    0.42970    1.000
    C27      C        0.16603    0.96437    0.26827    1.000
    F28      F        0.19753    0.99277    0.37117    1.000
    F29      F        0.84290    0.32280    0.46900    1.000
    C30      C        0.12843    0.95567    0.38067    1.000
    F31      F        0.13843    0.94057    0.50867    1.000
    F32      F        0.13253    0.99557    0.39467    1.000
    F33      F        0.09283    0.92597    0.30167    1.000
    Ag34     Ag       0.52767    0.51620    0.83288    1.000
    O35      O        0.99959    0.67738    0.98127    1.000
    N36      N        0.46717    0.47703    0.68843    1.000
    N37      N        0.38467    0.26093    0.72933    1.000
    C38      C        0.45347    0.49813    0.59183    1.000
    H39      H        0.47097    0.52883    0.58193    1.000
    C40      C        0.08143    0.80997    0.83977    1.000
    H41      H        0.73970    0.15930    0.10700    1.000
    C42      C        0.05543    0.76507    0.85247    1.000
    H43      H        0.02883    0.75017    0.79677    1.000
    C44      C        0.40247    0.40863    0.61583    1.000
    C45      C        0.44227    0.43283    0.69743    1.000
    H46      H        0.45207    0.41753    0.76123    1.000
    C47      C        0.37317    0.35963    0.63743    1.000
    C48      C        0.39357    0.33093    0.64393    1.000
    C49      C        0.09813    0.67357    0.89847    1.000
    H50      H        0.11383    0.70007    0.84217    1.000
    C51      C        0.44657    0.31013    0.56923    1.000
    H52      H        0.13913    0.64927    0.84977    1.000
    C53      C        0.42247    0.27173    0.65273    1.000
    H54      H        0.43287    0.25173    0.65643    1.000
    C55      C        0.37027    0.28993    0.72363    1.000
    H56      H        0.34367    0.28273    0.77423    1.000
    C57      C        0.50907    0.59063    0.89183    1.000
    O58      O        0.83320    0.23070    0.65910    1.000
    O59      O        0.52687    0.59283    0.76303    1.000
    C60      C        0.83270    0.29770    0.60160    1.000
    F61      F        0.86420    0.32610    0.70450    1.000
    F62      F        0.50957    0.65613    0.80233    1.000
    C63      C        0.79510    0.28900    0.71400    1.000
    F64      F        0.80510    0.27390    0.84200    1.000
    F65      F        0.79920    0.32890    0.72800    1.000
    F66      F        0.75950    0.25930    0.63500    1.000
    Ag67     Ag       0.19433    0.84954    0.16622    1.000
    O68      O        0.66626    0.01071    0.31460    1.000
    N69      N        0.13383    0.81037    0.02177    1.000
    N70      N        0.05133    0.59427    0.06267    1.000
    C71      C        0.12013    0.83147    0.92517    1.000
    H72      H        0.13763    0.86217    0.91527    1.000
    C73      C        0.74810    0.14330    0.17310    1.000
    H74      H        0.40637    0.49263    0.44033    1.000
    C75      C        0.72210    0.09840    0.18580    1.000
    H76      H        0.69550    0.08350    0.13010    1.000
    C77      C        0.06913    0.74197    0.94917    1.000
    C78      C        0.10893    0.76617    0.03077    1.000
    H79      H        0.11873    0.75087    0.09457    1.000
    C80      C        0.03983    0.69297    0.97077    1.000
    C81      C        0.06023    0.66427    0.97727    1.000
    C82      C        0.76480    0.00690    0.23180    1.000
    H83      H        0.78050    0.03340    0.17550    1.000
    C84      C        0.11323    0.64347    0.90257    1.000
    H85      H        0.80580    0.98260    0.18310    1.000
    C86      C        0.08913    0.60507    0.98607    1.000
    H87      H        0.09953    0.58507    0.98977    1.000
    C88      C        0.03693    0.62327    0.05697    1.000
    H89      H        0.01033    0.61607    0.10757    1.000
    C90      C        0.17573    0.92397    0.22517    1.000
    O91      O        0.49987    0.56403    0.99243    1.000
    O92      O        0.19353    0.92617    0.09637    1.000
    C93      C        0.49937    0.63103    0.93493    1.000
    F94      F        0.53087    0.65943    0.03783    1.000
    F95      F        0.17623    0.98947    0.13567    1.000
    C96      C        0.46177    0.62233    0.04733    1.000
    F97      F        0.47177    0.60723    0.17533    1.000
    F98      F        0.46587    0.66223    0.06133    1.000
    F99      F        0.42617    0.59263    0.96833    1.000
    Ag100    Ag       0.81713    0.67813    0.49955    1.000
    O101     O        0.65596    0.98888    0.64793    1.000
    N102     N        0.85630    0.65680    0.35510    1.000
    N103     N        0.07240    0.79040    0.39600    1.000
    C104     C        0.83520    0.62200    0.25850    1.000
    H105     H        0.80450    0.60880    0.24860    1.000
    C106     C        0.52337    0.93813    0.50643    1.000
    H107     H        0.17403    0.24707    0.77367    1.000
    C108     C        0.56827    0.95703    0.51913    1.000
    H109     H        0.58317    0.94533    0.46343    1.000
    C110     C        0.92470    0.66050    0.28250    1.000
    C111     C        0.90050    0.67610    0.36410    1.000
    H112     H        0.91580    0.70120    0.42790    1.000
    C113     C        0.97370    0.68020    0.30410    1.000
    C114     C        0.00240    0.72930    0.31060    1.000
    C115     C        0.65977    0.09123    0.56513    1.000
    H116     H        0.63327    0.08043    0.50883    1.000
    C117     C        0.02320    0.80310    0.23590    1.000
    H118     H        0.68407    0.15653    0.51643    1.000
    C119     C        0.06160    0.81740    0.31940    1.000
    H120     H        0.08160    0.84780    0.32310    1.000
    C121     C        0.04340    0.74700    0.39030    1.000
    H122     H        0.05060    0.72760    0.44090    1.000
    C123     C        0.74270    0.58510    0.55850    1.000
    O124     O        0.10263    0.26917    0.32577    1.000
    O125     O        0.74050    0.60070    0.42970    1.000
    C126     C        0.03563    0.20167    0.26827    1.000
    F127     F        0.00723    0.20477    0.37117    1.000
    F128     F        0.67720    0.52010    0.46900    1.000
    C129     C        0.04433    0.17277    0.38067    1.000
    F130     F        0.05943    0.19787    0.50867    1.000
    F131     F        0.00443    0.13697    0.39467    1.000
    F132     F        0.07403    0.16687    0.30167    1.000
    Ag133    Ag       0.48380    0.01146    0.83288    1.000
    O134     O        0.32262    0.32222    0.98127    1.000
    N135     N        0.52297    0.99013    0.68843    1.000
    N136     N        0.73907    0.12373    0.72933    1.000
    C137     C        0.50187    0.95533    0.59183    1.000
    H138     H        0.47117    0.94213    0.58193    1.000
    C139     C        0.19003    0.27147    0.83977    1.000
    H140     H        0.84070    0.58040    0.10700    1.000
    C141     C        0.23493    0.29037    0.85247    1.000
    H142     H        0.24983    0.27867    0.79677    1.000
    C143     C        0.59137    0.99383    0.61583    1.000
    C144     C        0.56717    0.00943    0.69743    1.000
    H145     H        0.58247    0.03453    0.76123    1.000
    C146     C        0.64037    0.01353    0.63743    1.000
    C147     C        0.66907    0.06263    0.64393    1.000
    C148     C        0.32643    0.42457    0.89847    1.000
    H149     H        0.29993    0.41377    0.84217    1.000
    C150     C        0.68987    0.13643    0.56923    1.000
    H151     H        0.35073    0.48987    0.84977    1.000
    C152     C        0.72827    0.15073    0.65273    1.000
    H153     H        0.74827    0.18113    0.65643    1.000
    C154     C        0.71007    0.08033    0.72363    1.000
    H155     H        0.71727    0.06093    0.77423    1.000
    C156     C        0.40937    0.91843    0.89183    1.000
    O157     O        0.76930    0.60250    0.65910    1.000
    O158     O        0.40717    0.93403    0.76303    1.000
    C159     C        0.70230    0.53500    0.60160    1.000
    F160     F        0.67390    0.53810    0.70450    1.000
    F161     F        0.34387    0.85343    0.80233    1.000
    C162     C        0.71100    0.50610    0.71400    1.000
    F163     F        0.72610    0.53120    0.84200    1.000
    F164     F        0.67110    0.47030    0.72800    1.000
    F165     F        0.74070    0.50020    0.63500    1.000
    Ag166    Ag       0.15046    0.34480    0.16622    1.000
    O167     O        0.98929    0.65555    0.31460    1.000
    N168     N        0.18963    0.32347    0.02177    1.000
    N169     N        0.40573    0.45707    0.06267    1.000
    C170     C        0.16853    0.28867    0.92517    1.000
    H171     H        0.13783    0.27547    0.91527    1.000
    C172     C        0.85670    0.60480    0.17310    1.000
    H173     H        0.50737    0.91373    0.44033    1.000
    C174     C        0.90160    0.62370    0.18580    1.000
    H175     H        0.91650    0.61200    0.13010    1.000
    C176     C        0.25803    0.32717    0.94917    1.000
    C177     C        0.23383    0.34277    0.03077    1.000
    H178     H        0.24913    0.36787    0.09457    1.000
    C179     C        0.30703    0.34687    0.97077    1.000
    C180     C        0.33573    0.39597    0.97727    1.000
    C181     C        0.99310    0.75790    0.23180    1.000
    H182     H        0.96660    0.74710    0.17550    1.000
    C183     C        0.35653    0.46977    0.90257    1.000
    H184     H        0.01740    0.82320    0.18310    1.000
    C185     C        0.39493    0.48407    0.98607    1.000
    H186     H        0.41493    0.51447    0.98977    1.000
    C187     C        0.37673    0.41367    0.05697    1.000
    H188     H        0.38393    0.39427    0.10757    1.000
    C189     C        0.07603    0.25177    0.22517    1.000
    O190     O        0.43597    0.93583    0.99243    1.000
    O191     O        0.07383    0.26737    0.09637    1.000
    C192     C        0.36897    0.86833    0.93493    1.000
    F193     F        0.34057    0.87143    0.03783    1.000
    F194     F        0.01053    0.18677    0.13567    1.000
    C195     C        0.37767    0.83943    0.04733    1.000
    F196     F        0.39277    0.86453    0.17533    1.000
    F197     F        0.33777    0.80363    0.06133    1.000
    F198     F        0.40737    0.83353    0.96833    1.000
    Ag199    Ag       0.32187    0.13900    0.49955    1.000
    O200     O        0.01112    0.66707    0.64793    1.000
    N201     N        0.34320    0.19950    0.35510    1.000
    N202     N        0.20960    0.28200    0.39600    1.000
    C203     C        0.37800    0.21320    0.25850    1.000
    H204     H        0.39120    0.19570    0.24860    1.000
    C205     C        0.06187    0.58523    0.50643    1.000
    H206     H        0.75293    0.92697    0.77367    1.000
    C207     C        0.04297    0.61123    0.51913    1.000
    H208     H        0.05467    0.63783    0.46343    1.000
    C209     C        0.33950    0.26420    0.28250    1.000
    C210     C        0.32390    0.22440    0.36410    1.000
    H211     H        0.29880    0.21460    0.42790    1.000
    C212     C        0.31980    0.29350    0.30410    1.000
    C213     C        0.27070    0.27310    0.31060    1.000
    C214     C        0.90877    0.56853    0.56513    1.000
    H215     H        0.91957    0.55283    0.50883    1.000
    C216     C        0.19690    0.22010    0.23590    1.000
    H217     H        0.84347    0.52753    0.51643    1.000
    C218     C        0.18260    0.24420    0.31940    1.000
    H219     H        0.15220    0.23380    0.32310    1.000
    C220     C        0.25300    0.29640    0.39030    1.000
    H221     H        0.27240    0.32300    0.44090    1.000
    C222     C        0.41490    0.15760    0.55850    1.000
    O223     O        0.73083    0.83347    0.32577    1.000
    O224     O        0.39930    0.13980    0.42970    1.000
    C225     C        0.79833    0.83397    0.26827    1.000
    F226     F        0.79523    0.80247    0.37117    1.000
    F227     F        0.47990    0.15710    0.46900    1.000
    C228     C        0.82723    0.87157    0.38067    1.000
    F229     F        0.80213    0.86157    0.50867    1.000
    F230     F        0.86303    0.86747    0.39467    1.000
    F231     F        0.83313    0.90717    0.30167    1.000
    Ag232    Ag       0.98854    0.47233    0.83288    1.000
    O233     O        0.67778    0.00041    0.98127    1.000
    N234     N        0.00987    0.53283    0.68843    1.000
    N235     N        0.87627    0.61533    0.72933    1.000
    C236     C        0.04467    0.54653    0.59183    1.000
    H237     H        0.05787    0.52903    0.58193    1.000
    C238     C        0.72853    0.91857    0.83977    1.000
    H239     H        0.41960    0.26030    0.10700    1.000
    C240     C        0.70963    0.94457    0.85247    1.000
    H241     H        0.72133    0.97117    0.79677    1.000
    C242     C        0.00617    0.59753    0.61583    1.000
    C243     C        0.99057    0.55773    0.69743    1.000
    H244     H        0.96547    0.54793    0.76123    1.000
    C245     C        0.98647    0.62683    0.63743    1.000
    C246     C        0.93737    0.60643    0.64393    1.000
    C247     C        0.57543    0.90187    0.89847    1.000
    H248     H        0.58623    0.88617    0.84217    1.000
    C249     C        0.86357    0.55343    0.56923    1.000
    H250     H        0.51013    0.86087    0.84977    1.000
    C251     C        0.84927    0.57753    0.65273    1.000
    H252     H        0.81887    0.56713    0.65643    1.000
    C253     C        0.91967    0.62973    0.72363    1.000
    H254     H        0.93907    0.65633    0.77423    1.000
    C255     C        0.08157    0.49093    0.89183    1.000
    O256     O        0.39750    0.16680    0.65910    1.000
    O257     O        0.06597    0.47313    0.76303    1.000
    C258     C        0.46500    0.16730    0.60160    1.000
    F259     F        0.46190    0.13580    0.70450    1.000
    F260     F        0.14657    0.49043    0.80233    1.000
    C261     C        0.49390    0.20490    0.71400    1.000
    F262     F        0.46880    0.19490    0.84200    1.000
    F263     F        0.52970    0.20080    0.72800    1.000
    F264     F        0.49980    0.24050    0.63500    1.000
    Ag265    Ag       0.65520    0.80567    0.16622    1.000
    O266     O        0.34445    0.33374    0.31460    1.000
    N267     N        0.67653    0.86617    0.02177    1.000
    N268     N        0.54293    0.94867    0.06267    1.000
    C269     C        0.71133    0.87987    0.92517    1.000
    H270     H        0.72453    0.86237    0.91527    1.000
    C271     C        0.39520    0.25190    0.17310    1.000
    H272     H        0.08627    0.59363    0.44033    1.000
    C273     C        0.37630    0.27790    0.18580    1.000
    H274     H        0.38800    0.30450    0.13010    1.000
    C275     C        0.67283    0.93087    0.94917    1.000
    C276     C        0.65723    0.89107    0.03077    1.000
    H277     H        0.63213    0.88127    0.09457    1.000
    C278     C        0.65313    0.96017    0.97077    1.000
    C279     C        0.60403    0.93977    0.97727    1.000
    C280     C        0.24210    0.23520    0.23180    1.000
    H281     H        0.25290    0.21950    0.17550    1.000
    C282     C        0.53023    0.88677    0.90257    1.000
    H283     H        0.17680    0.19420    0.18310    1.000
    C284     C        0.51593    0.91087    0.98607    1.000
    H285     H        0.48553    0.90047    0.98977    1.000
    C286     C        0.58633    0.96307    0.05697    1.000
    H287     H        0.60573    0.98967    0.10757    1.000
    C288     C        0.74823    0.82427    0.22517    1.000
    O289     O        0.06417    0.50013    0.99243    1.000
    O290     O        0.73263    0.80647    0.09637    1.000
    C291     C        0.13167    0.50063    0.93493    1.000
    F292     F        0.12857    0.46913    0.03783    1.000
    F293     F        0.81323    0.82377    0.13567    1.000
    C294     C        0.16057    0.53823    0.04733    1.000
    F295     F        0.13547    0.52823    0.17533    1.000
    F296     F        0.19637    0.53413    0.06133    1.000
    F297     F        0.16647    0.57383    0.96833    1.000
    Ag298    Ag       0.13900    0.81713    0.50045    1.000
    O299     O        0.66707    0.65596    0.35207    1.000
    N300     N        0.19950    0.85630    0.64490    1.000
    N301     N        0.28200    0.07240    0.60400    1.000
    C302     C        0.21320    0.83520    0.74150    1.000
    H303     H        0.19570    0.80450    0.75140    1.000
    C304     C        0.58523    0.52337    0.49357    1.000
    H305     H        0.92697    0.17403    0.22633    1.000
    C306     C        0.61123    0.56827    0.48087    1.000
    H307     H        0.63783    0.58317    0.53657    1.000
    C308     C        0.26420    0.92470    0.71750    1.000
    C309     C        0.22440    0.90050    0.63590    1.000
    H310     H        0.21460    0.91580    0.57210    1.000
    C311     C        0.29350    0.97370    0.69590    1.000
    C312     C        0.27310    0.00240    0.68940    1.000
    C313     C        0.56853    0.65977    0.43487    1.000
    H314     H        0.55283    0.63327    0.49117    1.000
    C315     C        0.22010    0.02320    0.76410    1.000
    H316     H        0.52753    0.68407    0.48357    1.000
    C317     C        0.24420    0.06160    0.68060    1.000
    H318     H        0.23380    0.08160    0.67690    1.000
    C319     C        0.29640    0.04340    0.60970    1.000
    H320     H        0.32300    0.05060    0.55910    1.000
    C321     C        0.15760    0.74270    0.44150    1.000
    O322     O        0.83347    0.10263    0.67423    1.000
    O323     O        0.13980    0.74050    0.57030    1.000
    C324     C        0.83397    0.03563    0.73173    1.000
    F325     F        0.80247    0.00723    0.62883    1.000
    F326     F        0.15710    0.67720    0.53100    1.000
    C327     C        0.87157    0.04433    0.61933    1.000
    F328     F        0.86157    0.05943    0.49133    1.000
    F329     F        0.86747    0.00443    0.60533    1.000
    F330     F        0.90717    0.07403    0.69833    1.000
    Ag331    Ag       0.80567    0.15046    0.83378    1.000
    O332     O        0.33374    0.98929    0.68540    1.000
    N333     N        0.86617    0.18963    0.97823    1.000
    N334     N        0.94867    0.40573    0.93733    1.000
    C335     C        0.87987    0.16853    0.07483    1.000
    H336     H        0.86237    0.13783    0.08473    1.000
    C337     C        0.25190    0.85670    0.82690    1.000
    H338     H        0.59363    0.50737    0.55967    1.000
    C339     C        0.27790    0.90160    0.81420    1.000
    H340     H        0.30450    0.91650    0.86990    1.000
    C341     C        0.93087    0.25803    0.05083    1.000
    C342     C        0.89107    0.23383    0.96923    1.000
    H343     H        0.88127    0.24913    0.90543    1.000
    C344     C        0.96017    0.30703    0.02923    1.000
    C345     C        0.93977    0.33573    0.02273    1.000
    C346     C        0.23520    0.99310    0.76820    1.000
    H347     H        0.21950    0.96660    0.82450    1.000
    C348     C        0.88677    0.35653    0.09743    1.000
    H349     H        0.19420    0.01740    0.81690    1.000
    C350     C        0.91087    0.39493    0.01393    1.000
    H351     H        0.90047    0.41493    0.01023    1.000
    C352     C        0.96307    0.37673    0.94303    1.000
    H353     H        0.98967    0.38393    0.89243    1.000
    C354     C        0.82427    0.07603    0.77483    1.000
    O355     O        0.50013    0.43597    0.00757    1.000
    O356     O        0.80647    0.07383    0.90363    1.000
    C357     C        0.50063    0.36897    0.06507    1.000
    F358     F        0.46913    0.34057    0.96217    1.000
    F359     F        0.82377    0.01053    0.86433    1.000
    C360     C        0.53823    0.37767    0.95267    1.000
    F361     F        0.52823    0.39277    0.82467    1.000
    F362     F        0.53413    0.33777    0.93867    1.000
    F363     F        0.57383    0.40737    0.03167    1.000
    Ag364    Ag       0.47233    0.48380    0.16712    1.000
    O365     O        0.00041    0.32262    0.01873    1.000
    N366     N        0.53283    0.52297    0.31157    1.000
    N367     N        0.61533    0.73907    0.27067    1.000
    C368     C        0.54653    0.50187    0.40817    1.000
    H369     H        0.52903    0.47117    0.41807    1.000
    C370     C        0.91857    0.19003    0.16023    1.000
    H371     H        0.26030    0.84070    0.89300    1.000
    C372     C        0.94457    0.23493    0.14753    1.000
    H373     H        0.97117    0.24983    0.20323    1.000
    C374     C        0.59753    0.59137    0.38417    1.000
    C375     C        0.55773    0.56717    0.30257    1.000
    H376     H        0.54793    0.58247    0.23877    1.000
    C377     C        0.62683    0.64037    0.36257    1.000
    C378     C        0.60643    0.66907    0.35607    1.000
    C379     C        0.90187    0.32643    0.10153    1.000
    H380     H        0.88617    0.29993    0.15783    1.000
    C381     C        0.55343    0.68987    0.43077    1.000
    H382     H        0.86087    0.35073    0.15023    1.000
    C383     C        0.57753    0.72827    0.34727    1.000
    H384     H        0.56713    0.74827    0.34357    1.000
    C385     C        0.62973    0.71007    0.27637    1.000
    H386     H        0.65633    0.71727    0.22577    1.000
    C387     C        0.49093    0.40937    0.10817    1.000
    O388     O        0.16680    0.76930    0.34090    1.000
    O389     O        0.47313    0.40717    0.23697    1.000
    C390     C        0.16730    0.70230    0.39840    1.000
    F391     F        0.13580    0.67390    0.29550    1.000
    F392     F        0.49043    0.34387    0.19767    1.000
    C393     C        0.20490    0.71100    0.28600    1.000
    F394     F        0.19490    0.72610    0.15800    1.000
    F395     F        0.20080    0.67110    0.27200    1.000
    F396     F        0.24050    0.74070    0.36500    1.000
    Ag397    Ag       0.18287    0.32187    0.50045    1.000
    O398     O        0.34404    0.01112    0.35207    1.000
    N399     N        0.14370    0.34320    0.64490    1.000
    N400     N        0.92760    0.20960    0.60400    1.000
    C401     C        0.16480    0.37800    0.74150    1.000
    H402     H        0.19550    0.39120    0.75140    1.000
    C403     C        0.47663    0.06187    0.49357    1.000
    H404     H        0.82597    0.75293    0.22633    1.000
    C405     C        0.43173    0.04297    0.48087    1.000
    H406     H        0.41683    0.05467    0.53657    1.000
    C407     C        0.07530    0.33950    0.71750    1.000
    C408     C        0.09950    0.32390    0.63590    1.000
    H409     H        0.08420    0.29880    0.57210    1.000
    C410     C        0.02630    0.31980    0.69590    1.000
    C411     C        0.99760    0.27070    0.68940    1.000
    C412     C        0.34023    0.90877    0.43487    1.000
    H413     H        0.36673    0.91957    0.49117    1.000
    C414     C        0.97680    0.19690    0.76410    1.000
    H415     H        0.31593    0.84347    0.48357    1.000
    C416     C        0.93840    0.18260    0.68060    1.000
    H417     H        0.91840    0.15220    0.67690    1.000
    C418     C        0.95660    0.25300    0.60970    1.000
    H419     H        0.94940    0.27240    0.55910    1.000
    C420     C        0.25730    0.41490    0.44150    1.000
    O421     O        0.89737    0.73083    0.67423    1.000
    O422     O        0.25950    0.39930    0.57030    1.000
    C423     C        0.96437    0.79833    0.73173    1.000
    F424     F        0.99277    0.79523    0.62883    1.000
    F425     F        0.32280    0.47990    0.53100    1.000
    C426     C        0.95567    0.82723    0.61933    1.000
    F427     F        0.94057    0.80213    0.49133    1.000
    F428     F        0.99557    0.86303    0.60533    1.000
    F429     F        0.92597    0.83313    0.69833    1.000
    Ag430    Ag       0.84954    0.65520    0.83378    1.000
    O431     O        0.01071    0.34445    0.68540    1.000
    N432     N        0.81037    0.67653    0.97823    1.000
    N433     N        0.59427    0.54293    0.93733    1.000
    C434     C        0.83147    0.71133    0.07483    1.000
    H435     H        0.86217    0.72453    0.08473    1.000
    C436     C        0.14330    0.39520    0.82690    1.000
    H437     H        0.49263    0.08627    0.55967    1.000
    C438     C        0.09840    0.37630    0.81420    1.000
    H439     H        0.08350    0.38800    0.86990    1.000
    C440     C        0.74197    0.67283    0.05083    1.000
    C441     C        0.76617    0.65723    0.96923    1.000
    H442     H        0.75087    0.63213    0.90543    1.000
    C443     C        0.69297    0.65313    0.02923    1.000
    C444     C        0.66427    0.60403    0.02273    1.000
    C445     C        0.00690    0.24210    0.76820    1.000
    H446     H        0.03340    0.25290    0.82450    1.000
    C447     C        0.64347    0.53023    0.09743    1.000
    H448     H        0.98260    0.17680    0.81690    1.000
    C449     C        0.60507    0.51593    0.01393    1.000
    H450     H        0.58507    0.48553    0.01023    1.000
    C451     C        0.62327    0.58633    0.94303    1.000
    H452     H        0.61607    0.60573    0.89243    1.000
    C453     C        0.92397    0.74823    0.77483    1.000
    O454     O        0.56403    0.06417    0.00757    1.000
    O455     O        0.92617    0.73263    0.90363    1.000
    C456     C        0.63103    0.13167    0.06507    1.000
    F457     F        0.65943    0.12857    0.96217    1.000
    F458     F        0.98947    0.81323    0.86433    1.000
    C459     C        0.62233    0.16057    0.95267    1.000
    F460     F        0.60723    0.13547    0.82467    1.000
    F461     F        0.66223    0.19637    0.93867    1.000
    F462     F        0.59263    0.16647    0.03167    1.000
    Ag463    Ag       0.51620    0.98854    0.16712    1.000
    O464     O        0.67738    0.67778    0.01873    1.000
    N465     N        0.47703    0.00987    0.31157    1.000
    N466     N        0.26093    0.87627    0.27067    1.000
    C467     C        0.49813    0.04467    0.40817    1.000
    H468     H        0.52883    0.05787    0.41807    1.000
    C469     C        0.80997    0.72853    0.16023    1.000
    H470     H        0.15930    0.41960    0.89300    1.000
    C471     C        0.76507    0.70963    0.14753    1.000
    H472     H        0.75017    0.72133    0.20323    1.000
    C473     C        0.40863    0.00617    0.38417    1.000
    C474     C        0.43283    0.99057    0.30257    1.000
    H475     H        0.41753    0.96547    0.23877    1.000
    C476     C        0.35963    0.98647    0.36257    1.000
    C477     C        0.33093    0.93737    0.35607    1.000
    C478     C        0.67357    0.57543    0.10153    1.000
    H479     H        0.70007    0.58623    0.15783    1.000
    C480     C        0.31013    0.86357    0.43077    1.000
    H481     H        0.64927    0.51013    0.15023    1.000
    C482     C        0.27173    0.84927    0.34727    1.000
    H483     H        0.25173    0.81887    0.34357    1.000
    C484     C        0.28993    0.91967    0.27637    1.000
    H485     H        0.28273    0.93907    0.22577    1.000
    C486     C        0.59063    0.08157    0.10817    1.000
    O487     O        0.23070    0.39750    0.34090    1.000
    O488     O        0.59283    0.06597    0.23697    1.000
    C489     C        0.29770    0.46500    0.39840    1.000
    F490     F        0.32610    0.46190    0.29550    1.000
    F491     F        0.65613    0.14657    0.19767    1.000
    C492     C        0.28900    0.49390    0.28600    1.000
    F493     F        0.27390    0.46880    0.15800    1.000
    F494     F        0.32890    0.52970    0.27200    1.000
    F495     F        0.25930    0.49980    0.36500    1.000
    Ag496    Ag       0.67813    0.86100    0.50045    1.000
    O497     O        0.98888    0.33293    0.35207    1.000
    N498     N        0.65680    0.80050    0.64490    1.000
    N499     N        0.79040    0.71800    0.60400    1.000
    C500     C        0.62200    0.78680    0.74150    1.000
    H501     H        0.60880    0.80430    0.75140    1.000
    C502     C        0.93813    0.41477    0.49357    1.000
    H503     H        0.24707    0.07303    0.22633    1.000
    C504     C        0.95703    0.38877    0.48087    1.000
    H505     H        0.94533    0.36217    0.53657    1.000
    C506     C        0.66050    0.73580    0.71750    1.000
    C507     C        0.67610    0.77560    0.63590    1.000
    H508     H        0.70120    0.78540    0.57210    1.000
    C509     C        0.68020    0.70650    0.69590    1.000
    C510     C        0.72930    0.72690    0.68940    1.000
    C511     C        0.09123    0.43147    0.43487    1.000
    H512     H        0.08043    0.44717    0.49117    1.000
    C513     C        0.80310    0.77990    0.76410    1.000
    H514     H        0.15653    0.47247    0.48357    1.000
    C515     C        0.81740    0.75580    0.68060    1.000
    H516     H        0.84780    0.76620    0.67690    1.000
    C517     C        0.74700    0.70360    0.60970    1.000
    H518     H        0.72760    0.67700    0.55910    1.000
    C519     C        0.58510    0.84240    0.44150    1.000
    O520     O        0.26917    0.16653    0.67423    1.000
    O521     O        0.60070    0.86020    0.57030    1.000
    C522     C        0.20167    0.16603    0.73173    1.000
    F523     F        0.20477    0.19753    0.62883    1.000
    F524     F        0.52010    0.84290    0.53100    1.000
    C525     C        0.17277    0.12843    0.61933    1.000
    F526     F        0.19787    0.13843    0.49133    1.000
    F527     F        0.13697    0.13253    0.60533    1.000
    F528     F        0.16687    0.09283    0.69833    1.000
    Ag529    Ag       0.34480    0.19433    0.83378    1.000
    O530     O        0.65555    0.66626    0.68540    1.000
    N531     N        0.32347    0.13383    0.97823    1.000
    N532     N        0.45707    0.05133    0.93733    1.000
    C533     C        0.28867    0.12013    0.07483    1.000
    H534     H        0.27547    0.13763    0.08473    1.000
    C535     C        0.60480    0.74810    0.82690    1.000
    H536     H        0.91373    0.40637    0.55967    1.000
    C537     C        0.62370    0.72210    0.81420    1.000
    H538     H        0.61200    0.69550    0.86990    1.000
    C539     C        0.32717    0.06913    0.05083    1.000
    C540     C        0.34277    0.10893    0.96923    1.000
    H541     H        0.36787    0.11873    0.90543    1.000
    C542     C        0.34687    0.03983    0.02923    1.000
    C543     C        0.39597    0.06023    0.02273    1.000
    C544     C        0.75790    0.76480    0.76820    1.000
    H545     H        0.74710    0.78050    0.82450    1.000
    C546     C        0.46977    0.11323    0.09743    1.000
    H547     H        0.82320    0.80580    0.81690    1.000
    C548     C        0.48407    0.08913    0.01393    1.000
    H549     H        0.51447    0.09953    0.01023    1.000
    C550     C        0.41367    0.03693    0.94303    1.000
    H551     H        0.39427    0.01033    0.89243    1.000
    C552     C        0.25177    0.17573    0.77483    1.000
    O553     O        0.93583    0.49987    0.00757    1.000
    O554     O        0.26737    0.19353    0.90363    1.000
    C555     C        0.86833    0.49937    0.06507    1.000
    F556     F        0.87143    0.53087    0.96217    1.000
    F557     F        0.18677    0.17623    0.86433    1.000
    C558     C        0.83943    0.46177    0.95267    1.000
    F559     F        0.86453    0.47177    0.82467    1.000
    F560     F        0.80363    0.46587    0.93867    1.000
    F561     F        0.83353    0.42617    0.03167    1.000
    Ag562    Ag       0.01146    0.52767    0.16712    1.000
    O563     O        0.32222    0.99959    0.01873    1.000
    N564     N        0.99013    0.46717    0.31157    1.000
    N565     N        0.12373    0.38467    0.27067    1.000
    C566     C        0.95533    0.45347    0.40817    1.000
    H567     H        0.94213    0.47097    0.41807    1.000
    C568     C        0.27147    0.08143    0.16023    1.000
    H569     H        0.58040    0.73970    0.89300    1.000
    C570     C        0.29037    0.05543    0.14753    1.000
    H571     H        0.27867    0.02883    0.20323    1.000
    C572     C        0.99383    0.40247    0.38417    1.000
    C573     C        0.00943    0.44227    0.30257    1.000
    H574     H        0.03453    0.45207    0.23877    1.000
    C575     C        0.01353    0.37317    0.36257    1.000
    C576     C        0.06263    0.39357    0.35607    1.000
    C577     C        0.42457    0.09813    0.10153    1.000
    H578     H        0.41377    0.11383    0.15783    1.000
    C579     C        0.13643    0.44657    0.43077    1.000
    H580     H        0.48987    0.13913    0.15023    1.000
    C581     C        0.15073    0.42247    0.34727    1.000
    H582     H        0.18113    0.43287    0.34357    1.000
    C583     C        0.08033    0.37027    0.27637    1.000
    H584     H        0.06093    0.34367    0.22577    1.000
    C585     C        0.91843    0.50907    0.10817    1.000
    O586     O        0.60250    0.83320    0.34090    1.000
    O587     O        0.93403    0.52687    0.23697    1.000
    C588     C        0.53500    0.83270    0.39840    1.000
    F589     F        0.53810    0.86420    0.29550    1.000
    F590     F        0.85343    0.50957    0.19767    1.000
    C591     C        0.50610    0.79510    0.28600    1.000
    F592     F        0.53120    0.80510    0.15800    1.000
    F593     F        0.47030    0.79920    0.27200    1.000
    F594     F        0.50020    0.75950    0.36500    1.000
