# CIF file generated by openbabel 3.1.0, see https://openbabel.org
data_I
_chemical_name_common 'image0'
_cell_length_a 27.8342
_cell_length_b 27.8342
_cell_length_c 6.2421
_cell_angle_alpha 90
_cell_angle_beta 90
_cell_angle_gamma 120
_space_group_name_H-M_alt 'P 1'
_space_group_name_Hall 'P 1'
loop_
    _symmetry_equiv_pos_as_xyz
    x,y,z
loop_
    _atom_site_label
    _atom_site_type_symbol
    _atom_site_fract_x
    _atom_site_fract_y
    _atom_site_fract_z
    _atom_site_occupancy
    Ni1      Ni       0.30346    0.02706    0.71921    1.000
    P1       P        0.29402    0.05095    0.23750    1.000
    O1       O        0.24067    0.05063    0.18310    1.000
    O2       O        0.32394    0.04578    0.04960    1.000
    N1       N        0.32491    0.11125    0.62300    1.000
    C1       C        0.27810    0.11980    0.64500    1.000
    O3       O        0.28276    0.00262    0.39790    1.000
    C2       C        0.37743    0.15730    0.74490    1.000
    C3       C        0.34670    0.11700    0.39490    1.000
    Ni2      Ni       0.97013    0.36039    0.05254    1.000
    P2       P        0.96069    0.38428    0.57083    1.000
    O4       O        0.90734    0.38396    0.51643    1.000
    O5       O        0.99061    0.37911    0.38293    1.000
    N2       N        0.99158    0.44458    0.95633    1.000
    C4       C        0.94477    0.45313    0.97833    1.000
    O6       O        0.94943    0.33595    0.73123    1.000
    C5       C        0.04410    0.49063    0.07823    1.000
    C6       C        0.01337    0.45033    0.72823    1.000
    Ni3      Ni       0.63679    0.69373    0.38588    1.000
    P3       P        0.62735    0.71762    0.90417    1.000
    O7       O        0.57400    0.71730    0.84977    1.000
    O8       O        0.65727    0.71245    0.71627    1.000
    N3       N        0.65824    0.77792    0.28967    1.000
    C7       C        0.61143    0.78647    0.31167    1.000
    O9       O        0.61609    0.66929    0.06457    1.000
    C8       C        0.71076    0.82397    0.41157    1.000
    C9       C        0.68003    0.78367    0.06157    1.000
    Ni4      Ni       0.97294    0.27640    0.71921    1.000
    P4       P        0.94905    0.24307    0.23750    1.000
    O10      O        0.94937    0.19004    0.18310    1.000
    O11      O        0.95422    0.27816    0.04960    1.000
    N4       N        0.88875    0.21366    0.62300    1.000
    C10      C        0.88020    0.15830    0.64500    1.000
    O12      O        0.99738    0.28014    0.39790    1.000
    C11      C        0.84270    0.22013    0.74490    1.000
    C12      C        0.88300    0.22970    0.39490    1.000
    Ni5      Ni       0.63961    0.60973    0.05254    1.000
    P5       P        0.61572    0.57640    0.57083    1.000
    O13      O        0.61604    0.52337    0.51643    1.000
    O14      O        0.62089    0.61149    0.38293    1.000
    N5       N        0.55542    0.54699    0.95633    1.000
    C13      C        0.54687    0.49163    0.97833    1.000
    O15      O        0.66405    0.61347    0.73123    1.000
    C14      C        0.50937    0.55346    0.07823    1.000
    C15      C        0.54967    0.56303    0.72823    1.000
    Ni6      Ni       0.30627    0.94307    0.38588    1.000
    P6       P        0.28238    0.90974    0.90417    1.000
    O16      O        0.28270    0.85671    0.84977    1.000
    O17      O        0.28755    0.94483    0.71627    1.000
    N6       N        0.22208    0.88033    0.28967    1.000
    C16      C        0.21353    0.82497    0.31167    1.000
    O18      O        0.33071    0.94681    0.06457    1.000
    C17      C        0.17603    0.88680    0.41157    1.000
    C18      C        0.21633    0.89637    0.06157    1.000
    Ni7      Ni       0.72360    0.69654    0.71921    1.000
    P7       P        0.75693    0.70598    0.23750    1.000
    O19      O        0.80996    0.75933    0.18310    1.000
    O20      O        0.72184    0.67606    0.04960    1.000
    N7       N        0.78634    0.67509    0.62300    1.000
    C19      C        0.84170    0.72190    0.64500    1.000
    O21      O        0.71986    0.71724    0.39790    1.000
    C20      C        0.77987    0.62257    0.74490    1.000
    C21      C        0.77030    0.65330    0.39490    1.000
    Ni8      Ni       0.39027    0.02987    0.05254    1.000
    P8       P        0.42360    0.03931    0.57083    1.000
    O22      O        0.47663    0.09266    0.51643    1.000
    O23      O        0.38851    0.00939    0.38293    1.000
    N8       N        0.45301    0.00842    0.95633    1.000
    C22      C        0.50837    0.05523    0.97833    1.000
    O24      O        0.38653    0.05057    0.73123    1.000
    C23      C        0.44654    0.95590    0.07823    1.000
    C24      C        0.43697    0.98663    0.72823    1.000
    Ni9      Ni       0.05693    0.36321    0.38588    1.000
    P9       P        0.09026    0.37265    0.90417    1.000
    O25      O        0.14329    0.42600    0.84977    1.000
    O26      O        0.05517    0.34273    0.71627    1.000
    N9       N        0.11967    0.34176    0.28967    1.000
    C25      C        0.17503    0.38857    0.31167    1.000
    O27      O        0.05319    0.38391    0.06457    1.000
    C26      C        0.11320    0.28924    0.41157    1.000
    C27      C        0.10363    0.31997    0.06157    1.000
    Ni10     Ni       0.69654    0.97294    0.28079    1.000
    P10      P        0.70598    0.94905    0.76250    1.000
    O28      O        0.75933    0.94937    0.81690    1.000
    O29      O        0.67606    0.95422    0.95040    1.000
    N10      N        0.67509    0.88875    0.37700    1.000
    C28      C        0.72190    0.88020    0.35500    1.000
    O30      O        0.71724    0.99738    0.60210    1.000
    C29      C        0.62257    0.84270    0.25510    1.000
    C30      C        0.65330    0.88300    0.60510    1.000
    Ni11     Ni       0.36321    0.30627    0.61412    1.000
    P11      P        0.37265    0.28238    0.09583    1.000
    O31      O        0.42600    0.28270    0.15023    1.000
    O32      O        0.34273    0.28755    0.28373    1.000
    N11      N        0.34176    0.22208    0.71033    1.000
    C31      C        0.38857    0.21353    0.68833    1.000
    O33      O        0.38391    0.33071    0.93543    1.000
    C32      C        0.28924    0.17603    0.58843    1.000
    C33      C        0.31997    0.21633    0.93843    1.000
    Ni12     Ni       0.02987    0.63961    0.94746    1.000
    P12      P        0.03931    0.61572    0.42917    1.000
    O34      O        0.09266    0.61604    0.48357    1.000
    O35      O        0.00939    0.62089    0.61707    1.000
    N12      N        0.00842    0.55542    0.04367    1.000
    C34      C        0.05523    0.54687    0.02167    1.000
    O36      O        0.05057    0.66405    0.26877    1.000
    C35      C        0.95590    0.50937    0.92177    1.000
    C36      C        0.98663    0.54967    0.27177    1.000
    Ni13     Ni       0.02706    0.72360    0.28079    1.000
    P13      P        0.05095    0.75693    0.76250    1.000
    O37      O        0.05063    0.80996    0.81690    1.000
    O38      O        0.04578    0.72184    0.95040    1.000
    N13      N        0.11125    0.78634    0.37700    1.000
    C37      C        0.11980    0.84170    0.35500    1.000
    O39      O        0.00262    0.71986    0.60210    1.000
    C38      C        0.15730    0.77987    0.25510    1.000
    C39      C        0.11700    0.77030    0.60510    1.000
    Ni14     Ni       0.69373    0.05693    0.61412    1.000
    P14      P        0.71762    0.09026    0.09583    1.000
    O40      O        0.71730    0.14329    0.15023    1.000
    O41      O        0.71245    0.05517    0.28373    1.000
    N14      N        0.77792    0.11967    0.71033    1.000
    C40      C        0.78647    0.17503    0.68833    1.000
    O42      O        0.66929    0.05319    0.93543    1.000
    C41      C        0.82397    0.11320    0.58843    1.000
    C42      C        0.78367    0.10363    0.93843    1.000
    Ni15     Ni       0.36039    0.39027    0.94746    1.000
    P15      P        0.38428    0.42360    0.42917    1.000
    O43      O        0.38396    0.47663    0.48357    1.000
    O44      O        0.37911    0.38851    0.61707    1.000
    N15      N        0.44458    0.45301    0.04367    1.000
    C43      C        0.45313    0.50837    0.02167    1.000
    O45      O        0.33595    0.38653    0.26877    1.000
    C44      C        0.49063    0.44654    0.92177    1.000
    C45      C        0.45033    0.43697    0.27177    1.000
    Ni16     Ni       0.27640    0.30346    0.28079    1.000
    P16      P        0.24307    0.29402    0.76250    1.000
    O46      O        0.19004    0.24067    0.81690    1.000
    O47      O        0.27816    0.32394    0.95040    1.000
    N16      N        0.21366    0.32491    0.37700    1.000
    C46      C        0.15830    0.27810    0.35500    1.000
    O48      O        0.28014    0.28276    0.60210    1.000
    C47      C        0.22013    0.37743    0.25510    1.000
    C48      C        0.22970    0.34670    0.60510    1.000
    Ni17     Ni       0.94307    0.63679    0.61412    1.000
    P17      P        0.90974    0.62735    0.09583    1.000
    O49      O        0.85671    0.57400    0.15023    1.000
    O50      O        0.94483    0.65727    0.28373    1.000
    N17      N        0.88033    0.65824    0.71033    1.000
    C49      C        0.82497    0.61143    0.68833    1.000
    O51      O        0.94681    0.61609    0.93543    1.000
    C50      C        0.88680    0.71076    0.58843    1.000
    C51      C        0.89637    0.68003    0.93843    1.000
    Ni18     Ni       0.60973    0.97013    0.94746    1.000
    P18      P        0.57640    0.96069    0.42917    1.000
    O52      O        0.52337    0.90734    0.48357    1.000
    O53      O        0.61149    0.99061    0.61707    1.000
    N18      N        0.54699    0.99158    0.04367    1.000
    C52      C        0.49163    0.94477    0.02167    1.000
    O54      O        0.61347    0.94943    0.26877    1.000
    C53      C        0.55346    0.04410    0.92177    1.000
    C54      C        0.56303    0.01337    0.27177    1.000
