# CIF file generated by openbabel 3.1.0, see https://openbabel.org
data_I
_chemical_name_common 'image0'
_cell_length_a 31.119
_cell_length_b 11.2984
_cell_length_c 7.4916
_cell_angle_alpha 90
_cell_angle_beta 92.839
_cell_angle_gamma 90
_space_group_name_H-M_alt 'P 1'
_space_group_name_Hall 'P 1'
loop_
    _symmetry_equiv_pos_as_xyz
    x,y,z
loop_
    _atom_site_label
    _atom_site_type_symbol
    _atom_site_fract_x
    _atom_site_fract_y
    _atom_site_fract_z
    _atom_site_occupancy
    Mo1      Mo       0.79317    0.48500    0.32829    1.000
    Mo2      Mo       0.91051    0.47766    0.26989    1.000
    O1       O        0.75290    0.59320    0.34100    1.000
    O2       O        0.76700    0.36460    0.22650    1.000
    O3       O        0.80030    0.55540    0.05370    1.000
    O4       O        0.85390    0.43600    0.27610    1.000
    O5       O        0.91050    0.54120    0.05260    1.000
    O6       O        0.96140    0.57590    0.35490    1.000
    N1       N        0.89820    0.13510    0.50280    1.000
    N2       N        0.82160    0.76160    0.43300    1.000
    N3       N        0.83580    0.65350    0.38770    1.000
    N4       N        0.87720    0.65780    0.36360    1.000
    N5       N        0.89140    0.76690    0.38740    1.000
    H1       H        0.91710    0.79270    0.37650    1.000
    C1       C        0.85750    0.95850    0.45640    1.000
    C2       C        0.89660    0.01360    0.48730    1.000
    H2       H        0.92180    0.96920    0.49760    1.000
    C3       C        0.86220    0.20140    0.49040    1.000
    H3       H        0.86390    0.28320    0.50330    1.000
    C4       C        0.82280    0.14760    0.45850    1.000
    H4       H        0.79780    0.19290    0.44840    1.000
    C5       C        0.82050    0.02500    0.44140    1.000
    H5       H        0.79410    0.98810    0.41990    1.000
    C6       C        0.85660    0.82940    0.43260    1.000
    Mo3      Mo       0.29317    0.98500    0.32829    1.000
    Mo4      Mo       0.41051    0.97766    0.26989    1.000
    O7       O        0.25290    0.09320    0.34100    1.000
    O8       O        0.26700    0.86460    0.22650    1.000
    O9       O        0.30030    0.05540    0.05370    1.000
    O10      O        0.35390    0.93600    0.27610    1.000
    O11      O        0.41050    0.04120    0.05260    1.000
    O12      O        0.46140    0.07590    0.35490    1.000
    N6       N        0.39820    0.63510    0.50280    1.000
    N7       N        0.32160    0.26160    0.43300    1.000
    N8       N        0.33580    0.15350    0.38770    1.000
    N9       N        0.37720    0.15780    0.36360    1.000
    N10      N        0.39140    0.26690    0.38740    1.000
    H6       H        0.41710    0.29270    0.37650    1.000
    C7       C        0.35750    0.45850    0.45640    1.000
    C8       C        0.39660    0.51360    0.48730    1.000
    H7       H        0.42180    0.46920    0.49760    1.000
    C9       C        0.36220    0.70140    0.49040    1.000
    H8       H        0.36390    0.78320    0.50330    1.000
    C10      C        0.32280    0.64760    0.45850    1.000
    H9       H        0.29780    0.69290    0.44840    1.000
    C11      C        0.32050    0.52500    0.44140    1.000
    H10      H        0.29410    0.48810    0.41990    1.000
    C12      C        0.35660    0.32940    0.43260    1.000
    Mo5      Mo       0.20683    0.48500    0.17171    1.000
    Mo6      Mo       0.08949    0.47766    0.23011    1.000
    O13      O        0.24710    0.59320    0.15900    1.000
    O14      O        0.23300    0.36460    0.27350    1.000
    O15      O        0.19970    0.55540    0.44630    1.000
    O16      O        0.14610    0.43600    0.22390    1.000
    O17      O        0.08950    0.54120    0.44740    1.000
    O18      O        0.03860    0.57590    0.14510    1.000
    N11      N        0.10180    0.13510    0.99720    1.000
    N12      N        0.17840    0.76160    0.06700    1.000
    N13      N        0.16420    0.65350    0.11230    1.000
    N14      N        0.12280    0.65780    0.13640    1.000
    N15      N        0.10860    0.76690    0.11260    1.000
    H11      H        0.08290    0.79270    0.12350    1.000
    C13      C        0.14250    0.95850    0.04360    1.000
    C14      C        0.10340    0.01360    0.01270    1.000
    H12      H        0.07820    0.96920    0.00240    1.000
    C15      C        0.13780    0.20140    0.00960    1.000
    H13      H        0.13610    0.28320    0.99670    1.000
    C16      C        0.17720    0.14760    0.04150    1.000
    H14      H        0.20220    0.19290    0.05160    1.000
    C17      C        0.17950    0.02500    0.05860    1.000
    H15      H        0.20590    0.98810    0.08010    1.000
    C18      C        0.14340    0.82940    0.06740    1.000
    Mo7      Mo       0.70683    0.98500    0.17171    1.000
    Mo8      Mo       0.58949    0.97766    0.23011    1.000
    O19      O        0.74710    0.09320    0.15900    1.000
    O20      O        0.73300    0.86460    0.27350    1.000
    O21      O        0.69970    0.05540    0.44630    1.000
    O22      O        0.64610    0.93600    0.22390    1.000
    O23      O        0.58950    0.04120    0.44740    1.000
    O24      O        0.53860    0.07590    0.14510    1.000
    N16      N        0.60180    0.63510    0.99720    1.000
    N17      N        0.67840    0.26160    0.06700    1.000
    N18      N        0.66420    0.15350    0.11230    1.000
    N19      N        0.62280    0.15780    0.13640    1.000
    N20      N        0.60860    0.26690    0.11260    1.000
    H16      H        0.58290    0.29270    0.12350    1.000
    C19      C        0.64250    0.45850    0.04360    1.000
    C20      C        0.60340    0.51360    0.01270    1.000
    H17      H        0.57820    0.46920    0.00240    1.000
    C21      C        0.63780    0.70140    0.00960    1.000
    H18      H        0.63610    0.78320    0.99670    1.000
    C22      C        0.67720    0.64760    0.04150    1.000
    H19      H        0.70220    0.69290    0.05160    1.000
    C23      C        0.67950    0.52500    0.05860    1.000
    H20      H        0.70590    0.48810    0.08010    1.000
    C24      C        0.64340    0.32940    0.06740    1.000
    Mo9      Mo       0.20683    0.51500    0.67171    1.000
    Mo10     Mo       0.08949    0.52234    0.73011    1.000
    O25      O        0.24710    0.40680    0.65900    1.000
    O26      O        0.23300    0.63540    0.77350    1.000
    O27      O        0.19970    0.44460    0.94630    1.000
    O28      O        0.14610    0.56400    0.72390    1.000
    O29      O        0.08950    0.45880    0.94740    1.000
    O30      O        0.03860    0.42410    0.64510    1.000
    N21      N        0.10180    0.86490    0.49720    1.000
    N22      N        0.17840    0.23840    0.56700    1.000
    N23      N        0.16420    0.34650    0.61230    1.000
    N24      N        0.12280    0.34220    0.63640    1.000
    N25      N        0.10860    0.23310    0.61260    1.000
    H21      H        0.08290    0.20730    0.62350    1.000
    C25      C        0.14250    0.04150    0.54360    1.000
    C26      C        0.10340    0.98640    0.51270    1.000
    H22      H        0.07820    0.03080    0.50240    1.000
    C27      C        0.13780    0.79860    0.50960    1.000
    H23      H        0.13610    0.71680    0.49670    1.000
    C28      C        0.17720    0.85240    0.54150    1.000
    H24      H        0.20220    0.80710    0.55160    1.000
    C29      C        0.17950    0.97500    0.55860    1.000
    H25      H        0.20590    0.01190    0.58010    1.000
    C30      C        0.14340    0.17060    0.56740    1.000
    Mo11     Mo       0.70683    0.01500    0.67171    1.000
    Mo12     Mo       0.58949    0.02234    0.73011    1.000
    O31      O        0.74710    0.90680    0.65900    1.000
    O32      O        0.73300    0.13540    0.77350    1.000
    O33      O        0.69970    0.94460    0.94630    1.000
    O34      O        0.64610    0.06400    0.72390    1.000
    O35      O        0.58950    0.95880    0.94740    1.000
    O36      O        0.53860    0.92410    0.64510    1.000
    N26      N        0.60180    0.36490    0.49720    1.000
    N27      N        0.67840    0.73840    0.56700    1.000
    N28      N        0.66420    0.84650    0.61230    1.000
    N29      N        0.62280    0.84220    0.63640    1.000
    N30      N        0.60860    0.73310    0.61260    1.000
    H26      H        0.58290    0.70730    0.62350    1.000
    C31      C        0.64250    0.54150    0.54360    1.000
    C32      C        0.60340    0.48640    0.51270    1.000
    H27      H        0.57820    0.53080    0.50240    1.000
    C33      C        0.63780    0.29860    0.50960    1.000
    H28      H        0.63610    0.21680    0.49670    1.000
    C34      C        0.67720    0.35240    0.54150    1.000
    H29      H        0.70220    0.30710    0.55160    1.000
    C35      C        0.67950    0.47500    0.55860    1.000
    H30      H        0.70590    0.51190    0.58010    1.000
    C36      C        0.64340    0.67060    0.56740    1.000
    Mo13     Mo       0.79317    0.51500    0.82829    1.000
    Mo14     Mo       0.91051    0.52234    0.76989    1.000
    O37      O        0.75290    0.40680    0.84100    1.000
    O38      O        0.76700    0.63540    0.72650    1.000
    O39      O        0.80030    0.44460    0.55370    1.000
    O40      O        0.85390    0.56400    0.77610    1.000
    O41      O        0.91050    0.45880    0.55260    1.000
    O42      O        0.96140    0.42410    0.85490    1.000
    N31      N        0.89820    0.86490    0.00280    1.000
    N32      N        0.82160    0.23840    0.93300    1.000
    N33      N        0.83580    0.34650    0.88770    1.000
    N34      N        0.87720    0.34220    0.86360    1.000
    N35      N        0.89140    0.23310    0.88740    1.000
    H31      H        0.91710    0.20730    0.87650    1.000
    C37      C        0.85750    0.04150    0.95640    1.000
    C38      C        0.89660    0.98640    0.98730    1.000
    H32      H        0.92180    0.03080    0.99760    1.000
    C39      C        0.86220    0.79860    0.99040    1.000
    H33      H        0.86390    0.71680    0.00330    1.000
    C40      C        0.82280    0.85240    0.95850    1.000
    H34      H        0.79780    0.80710    0.94840    1.000
    C41      C        0.82050    0.97500    0.94140    1.000
    H35      H        0.79410    0.01190    0.91990    1.000
    C42      C        0.85660    0.17060    0.93260    1.000
    Mo15     Mo       0.29317    0.01500    0.82829    1.000
    Mo16     Mo       0.41051    0.02234    0.76989    1.000
    O43      O        0.25290    0.90680    0.84100    1.000
    O44      O        0.26700    0.13540    0.72650    1.000
    O45      O        0.30030    0.94460    0.55370    1.000
    O46      O        0.35390    0.06400    0.77610    1.000
    O47      O        0.41050    0.95880    0.55260    1.000
    O48      O        0.46140    0.92410    0.85490    1.000
    N36      N        0.39820    0.36490    0.00280    1.000
    N37      N        0.32160    0.73840    0.93300    1.000
    N38      N        0.33580    0.84650    0.88770    1.000
    N39      N        0.37720    0.84220    0.86360    1.000
    N40      N        0.39140    0.73310    0.88740    1.000
    H36      H        0.41710    0.70730    0.87650    1.000
    C43      C        0.35750    0.54150    0.95640    1.000
    C44      C        0.39660    0.48640    0.98730    1.000
    H37      H        0.42180    0.53080    0.99760    1.000
    C45      C        0.36220    0.29860    0.99040    1.000
    H38      H        0.36390    0.21680    0.00330    1.000
    C46      C        0.32280    0.35240    0.95850    1.000
    H39      H        0.29780    0.30710    0.94840    1.000
    C47      C        0.32050    0.47500    0.94140    1.000
    H40      H        0.29410    0.51190    0.91990    1.000
    C48      C        0.35660    0.67060    0.93260    1.000
    Mo17     Mo       0.00000    0.66933    0.25000    1.000
    Mo18     Mo       0.50000    0.16933    0.25000    1.000
    Mo19     Mo       0.00000    0.33067    0.75000    1.000
    Mo20     Mo       0.50000    0.83067    0.75000    1.000
    Mn1      Mn       0.75000    0.75000    0.50000    1.000
    Mn2      Mn       0.25000    0.75000    0.00000    1.000
    Mn3      Mn       0.25000    0.25000    0.50000    1.000
    Mn4      Mn       0.75000    0.25000    0.00000    1.000
