# CIF file generated by openbabel 3.1.0, see https://openbabel.org
data_I
_chemical_name_common 'image0'
_cell_length_a 9.42
_cell_length_b 9.42
_cell_length_c 10.242
_cell_angle_alpha 90
_cell_angle_beta 90
_cell_angle_gamma 120
_space_group_name_H-M_alt 'P 1'
_space_group_name_Hall 'P 1'
loop_
    _symmetry_equiv_pos_as_xyz
    x,y,z
loop_
    _atom_site_label
    _atom_site_type_symbol
    _atom_site_fract_x
    _atom_site_fract_y
    _atom_site_fract_z
    _atom_site_occupancy
    Co1      Co       0.66420    0.66520    0.50380    1.000
    O1       O        0.76630    0.88270    0.38030    1.000
    H1       H        0.70580    0.85060    0.29760    1.000
    O2       O        0.77790    0.55920    0.40020    1.000
    H2       H        0.77580    0.55910    0.30450    1.000
    O3       O        0.88900    0.44500    0.60590    1.000
    H3       H        0.89010    0.44770    0.70160    1.000
    H4       H        0.93590    0.89000    0.13200    1.000
    C1       C        0.15000    0.09900    0.06790    1.000
    H5       H        0.22000    0.19910    0.11520    1.000
    H6       H        0.20840    0.03860    0.06000    1.000
    C2       C        0.88100    0.85800    0.06790    1.000
    H7       H        0.21900    0.13970    0.06000    1.000
    H8       H        0.19640    0.97450    0.11520    1.000
    Co2      Co       0.33480    0.99900    0.50380    1.000
    O4       O        0.11730    0.88360    0.38030    1.000
    H9       H        0.14940    0.85520    0.29760    1.000
    O5       O        0.44080    0.21870    0.40020    1.000
    H10      H        0.44090    0.21670    0.30450    1.000
    O6       O        0.55500    0.44400    0.60590    1.000
    H11      H        0.55230    0.44240    0.70160    1.000
    H12      H        0.11000    0.04590    0.13200    1.000
    C3       C        0.90100    0.05100    0.06790    1.000
    H13      H        0.80090    0.02090    0.11520    1.000
    H14      H        0.96140    0.16980    0.06000    1.000
    C4       C        0.14200    0.02300    0.06790    1.000
    H15      H        0.86030    0.07930    0.06000    1.000
    H16      H        0.02550    0.22190    0.11520    1.000
    Co3      Co       0.00100    0.33580    0.50380    1.000
    O7       O        0.11640    0.23370    0.38030    1.000
    H17      H        0.14480    0.29420    0.29760    1.000
    O8       O        0.78130    0.22210    0.40020    1.000
    H18      H        0.78330    0.22420    0.30450    1.000
    O9       O        0.55600    0.11100    0.60590    1.000
    H19      H        0.55760    0.10990    0.70160    1.000
    H20      H        0.95410    0.06410    0.13200    1.000
    C5       C        0.94900    0.85000    0.06790    1.000
    H21      H        0.97910    0.78000    0.11520    1.000
    H22      H        0.83020    0.79160    0.06000    1.000
    C6       C        0.97700    0.11900    0.06790    1.000
    H23      H        0.92070    0.78100    0.06000    1.000
    H24      H        0.77810    0.80360    0.11520    1.000
    Co4      Co       0.33580    0.33480    0.49620    1.000
    O10      O        0.23370    0.11730    0.61970    1.000
    H25      H        0.29420    0.14940    0.70240    1.000
    O11      O        0.22210    0.44080    0.59980    1.000
    H26      H        0.22420    0.44090    0.69550    1.000
    O12      O        0.11100    0.55500    0.39410    1.000
    H27      H        0.10990    0.55230    0.29840    1.000
    H28      H        0.06410    0.11000    0.86800    1.000
    C7       C        0.85000    0.90100    0.93210    1.000
    H29      H        0.78000    0.80090    0.88480    1.000
    H30      H        0.79160    0.96140    0.94000    1.000
    C8       C        0.11900    0.14200    0.93210    1.000
    H31      H        0.78100    0.86030    0.94000    1.000
    H32      H        0.80360    0.02550    0.88480    1.000
    Co5      Co       0.66520    0.00100    0.49620    1.000
    O13      O        0.88270    0.11640    0.61970    1.000
    H33      H        0.85060    0.14480    0.70240    1.000
    O14      O        0.55920    0.78130    0.59980    1.000
    H34      H        0.55910    0.78330    0.69550    1.000
    O15      O        0.44500    0.55600    0.39410    1.000
    H35      H        0.44770    0.55760    0.29840    1.000
    H36      H        0.89000    0.95410    0.86800    1.000
    C9       C        0.09900    0.94900    0.93210    1.000
    H37      H        0.19910    0.97910    0.88480    1.000
    H38      H        0.03860    0.83020    0.94000    1.000
    C10      C        0.85800    0.97700    0.93210    1.000
    H39      H        0.13970    0.92070    0.94000    1.000
    H40      H        0.97450    0.77810    0.88480    1.000
    Co6      Co       0.99900    0.66420    0.49620    1.000
    O16      O        0.88360    0.76630    0.61970    1.000
    H41      H        0.85520    0.70580    0.70240    1.000
    O17      O        0.21870    0.77790    0.59980    1.000
    H42      H        0.21670    0.77580    0.69550    1.000
    O18      O        0.44400    0.88900    0.39410    1.000
    H43      H        0.44240    0.89010    0.29840    1.000
    H44      H        0.04590    0.93590    0.86800    1.000
    C11      C        0.05100    0.15000    0.93210    1.000
    H45      H        0.02090    0.22000    0.88480    1.000
    H46      H        0.16980    0.20840    0.94000    1.000
    C12      C        0.02300    0.88100    0.93210    1.000
    H47      H        0.07930    0.21900    0.94000    1.000
    H48      H        0.22190    0.19640    0.88480    1.000
    Co7      Co       0.66667    0.33333    0.50260    1.000
    Co8      Co       0.33333    0.66667    0.49740    1.000
    Co9      Co       0.00000    0.00000    0.33750    1.000
    N1       N        0.00000    0.00000    0.14400    1.000
    Co10     Co       0.00000    0.00000    0.66250    1.000
    N2       N        0.00000    0.00000    0.85600    1.000
