# CIF file generated by openbabel 3.1.0, see https://openbabel.org
data_I
_chemical_name_common 'image0'
_cell_length_a 10.5561
_cell_length_b 10.5378
_cell_length_c 16.8962
_cell_angle_alpha 83.205
_cell_angle_beta 76.425
_cell_angle_gamma 69.971
_space_group_name_H-M_alt 'P 1'
_space_group_name_Hall 'P 1'
loop_
    _symmetry_equiv_pos_as_xyz
    x,y,z
loop_
    _atom_site_label
    _atom_site_type_symbol
    _atom_site_fract_x
    _atom_site_fract_y
    _atom_site_fract_z
    _atom_site_occupancy
    Nd1      Nd       0.37227    0.39760    0.48162    1.000
    O1       O        0.41370    0.60630    0.43769    1.000
    O2       O        0.52310    0.21630    0.55784    1.000
    O3       O        0.59490    0.33750    0.39126    1.000
    O4       O        0.29490    0.51370    0.60928    1.000
    O5       O        0.31370    0.41180    0.34296    1.000
    O6       O        0.22200    0.29080    0.57916    1.000
    C1       C        0.28950    0.39310    0.27870    1.000
    C2       C        0.39320    0.30120    0.21610    1.000
    O7       O        0.17260    0.45320    0.25720    1.000
    C3       C        0.35220    0.26980    0.15050    1.000
    C4       C        0.53010    0.24530    0.22360    1.000
    H1       H        0.11800    0.50200    0.29000    1.000
    H2       H        0.25870    0.30760    0.14540    1.000
    C5       C        0.44770    0.18320    0.09260    1.000
    H3       H        0.55810    0.26470    0.26910    1.000
    C6       C        0.62600    0.16090    0.16440    1.000
    H4       H        0.41860    0.16190    0.04820    1.000
    C7       C        0.58630    0.12670    0.09850    1.000
    H5       H        0.71990    0.12580    0.16870    1.000
    C8       C        0.68650    0.04310    0.03160    1.000
    C9       C        0.79090    0.91960    0.04290    1.000
    C10      C        0.67740    0.09170    0.95200    1.000
    C11      C        0.81030    0.85530    0.12450    1.000
    C12      C        0.88020    0.85650    0.97380    1.000
    C13      C        0.76580    0.02740    0.88310    1.000
    H6       H        0.60630    0.17390    0.94440    1.000
    C14      C        0.70110    0.84000    0.18540    1.000
    C15      C        0.94140    0.80840    0.14170    1.000
    C16      C        0.87260    0.90670    0.89400    1.000
    H7       H        0.95090    0.77390    0.98120    1.000
    C17      C        0.73530    0.08810    0.80240    1.000
    H8       H        0.61090    0.86920    0.17460    1.000
    C18      C        0.72180    0.78290    0.26130    1.000
    C19      C        0.96310    0.74780    0.21690    1.000
    H9       H        0.01740    0.81810    0.10120    1.000
    C20      C        0.98050    0.83150    0.82590    1.000
    C21      C        0.72940    0.01090    0.74310    1.000
    C22      C        0.69680    0.22820    0.78860    1.000
    C23      C        0.85420    0.73500    0.27810    1.000
    H10      H        0.64540    0.77620    0.30240    1.000
    H11      H        0.05410    0.71450    0.22670    1.000
    C24      C        0.05040    0.90050    0.76480    1.000
    C25      C        0.01850    0.69110    0.82340    1.000
    C26      C        0.68260    0.07080    0.67330    1.000
    H12      H        0.75790    0.91520    0.75050    1.000
    H13      H        0.70070    0.28270    0.82840    1.000
    C27      C        0.65320    0.28940    0.71800    1.000
    C28      C        0.87610    0.67580    0.36100    1.000
    H14      H        0.02420    0.99620    0.76440    1.000
    C29      C        0.15680    0.83000    0.70510    1.000
    H15      H        0.97350    0.64260    0.86480    1.000
    C30      C        0.12180    0.62190    0.76090    1.000
    C31      C        0.64420    0.21140    0.66020    1.000
    H16      H        0.67650    0.01640    0.63420    1.000
    H17      H        0.62950    0.38460    0.70930    1.000
    O8       O        0.99450    0.59600    0.36627    1.000
    C32      C        0.19200    0.69010    0.70190    1.000
    H18      H        0.20660    0.87720    0.66580    1.000
    H19      H        0.14440    0.52680    0.75880    1.000
    C33      C        0.58260    0.27680    0.58840    1.000
    C34      C        0.30720    0.61570    0.63470    1.000
    Nd2      Nd       0.62773    0.60240    0.51838    1.000
    O9       O        0.58630    0.39370    0.56231    1.000
    O10      O        0.47690    0.78370    0.44216    1.000
    O11      O        0.40510    0.66250    0.60874    1.000
    O12      O        0.70510    0.48630    0.39072    1.000
    O13      O        0.68630    0.58820    0.65704    1.000
    O14      O        0.77800    0.70920    0.42084    1.000
    C35      C        0.71050    0.60690    0.72130    1.000
    C36      C        0.60680    0.69880    0.78390    1.000
    O15      O        0.82740    0.54680    0.74280    1.000
    C37      C        0.64780    0.73020    0.84950    1.000
    C38      C        0.46990    0.75470    0.77640    1.000
    H20      H        0.88200    0.49800    0.71000    1.000
    H21      H        0.74130    0.69240    0.85460    1.000
    C39      C        0.55230    0.81680    0.90740    1.000
    H22      H        0.44190    0.73530    0.73090    1.000
    C40      C        0.37400    0.83910    0.83560    1.000
    H23      H        0.58140    0.83810    0.95180    1.000
    C41      C        0.41370    0.87330    0.90150    1.000
    H24      H        0.28010    0.87420    0.83130    1.000
    C42      C        0.31350    0.95690    0.96840    1.000
    C43      C        0.20910    0.08040    0.95710    1.000
    C44      C        0.32260    0.90830    0.04800    1.000
    C45      C        0.18970    0.14470    0.87550    1.000
    C46      C        0.11980    0.14350    0.02620    1.000
    C47      C        0.23420    0.97260    0.11690    1.000
    H25      H        0.39370    0.82610    0.05560    1.000
    C48      C        0.29890    0.16000    0.81460    1.000
    C49      C        0.05860    0.19160    0.85830    1.000
    C50      C        0.12740    0.09330    0.10600    1.000
    H26      H        0.04910    0.22610    0.01880    1.000
    C51      C        0.26470    0.91190    0.19760    1.000
    H27      H        0.38910    0.13080    0.82540    1.000
    C52      C        0.27820    0.21710    0.73870    1.000
    C53      C        0.03690    0.25220    0.78310    1.000
    H28      H        0.98260    0.18190    0.89880    1.000
    C54      C        0.01950    0.16850    0.17410    1.000
    C55      C        0.27060    0.98910    0.25690    1.000
    C56      C        0.30320    0.77180    0.21140    1.000
    C57      C        0.14580    0.26500    0.72190    1.000
    H29      H        0.35460    0.22380    0.69760    1.000
    H30      H        0.94590    0.28550    0.77330    1.000
    C58      C        0.94960    0.09950    0.23520    1.000
    C59      C        0.98150    0.30890    0.17660    1.000
    C60      C        0.31740    0.92920    0.32670    1.000
    H31      H        0.24210    0.08480    0.24950    1.000
    H32      H        0.29930    0.71730    0.17160    1.000
    C61      C        0.34680    0.71060    0.28200    1.000
    C62      C        0.12390    0.32420    0.63900    1.000
    H33      H        0.97580    0.00380    0.23560    1.000
    C63      C        0.84320    0.17000    0.29490    1.000
    H34      H        0.02650    0.35740    0.13520    1.000
    C64      C        0.87820    0.37810    0.23910    1.000
    C65      C        0.35580    0.78860    0.33980    1.000
    H35      H        0.32350    0.98360    0.36580    1.000
    H36      H        0.37050    0.61540    0.29070    1.000
    O16      O        0.00550    0.40400    0.63373    1.000
    C66      C        0.80800    0.30990    0.29810    1.000
    H37      H        0.79340    0.12280    0.33420    1.000
    H38      H        0.85560    0.47320    0.24120    1.000
    C67      C        0.41740    0.72320    0.41160    1.000
    C68      C        0.69280    0.38430    0.36530    1.000
