# CIF file generated by openbabel 3.1.0, see https://openbabel.org
data_I
_chemical_name_common 'image0'
_cell_length_a 6.734
_cell_length_b 12.536
_cell_length_c 9.12
_cell_angle_alpha 90
_cell_angle_beta 118.622
_cell_angle_gamma 90
_space_group_name_H-M_alt 'P 1'
_space_group_name_Hall 'P 1'
loop_
    _symmetry_equiv_pos_as_xyz
    x,y,z
loop_
    _atom_site_label
    _atom_site_type_symbol
    _atom_site_fract_x
    _atom_site_fract_y
    _atom_site_fract_z
    _atom_site_occupancy
    Ag1      Ag       0.64630    0.23302    0.60150    1.000
    C1       C        0.55000    0.16010    0.37630    1.000
    N1       N        0.48830    0.10700    0.25860    1.000
    C2       C        0.72500    0.32650    0.80910    1.000
    N2       N        0.77320    0.38910    0.90980    1.000
    C3       C        0.98140    0.09140    0.07710    1.000
    H1       H        0.04910    0.15750    0.07510    1.000
    C4       C        0.77390    0.09080    0.07840    1.000
    H2       H        0.70090    0.15650    0.07380    1.000
    Ag2      Ag       0.14630    0.73302    0.60150    1.000
    C5       C        0.05000    0.66010    0.37630    1.000
    N3       N        0.98830    0.60700    0.25860    1.000
    C6       C        0.22500    0.82650    0.80910    1.000
    N4       N        0.27320    0.88910    0.90980    1.000
    C7       C        0.48140    0.59140    0.07710    1.000
    H3       H        0.54910    0.65750    0.07510    1.000
    C8       C        0.27390    0.59080    0.07840    1.000
    H4       H        0.20090    0.65650    0.07380    1.000
    Ag3      Ag       0.64630    0.76698    0.60150    1.000
    C9       C        0.55000    0.83990    0.37630    1.000
    N5       N        0.48830    0.89300    0.25860    1.000
    C10      C        0.72500    0.67350    0.80910    1.000
    N6       N        0.77320    0.61090    0.90980    1.000
    C11      C        0.98140    0.90860    0.07710    1.000
    H5       H        0.04910    0.84250    0.07510    1.000
    C12      C        0.77390    0.90920    0.07840    1.000
    H6       H        0.70090    0.84350    0.07380    1.000
    Ag4      Ag       0.14630    0.26698    0.60150    1.000
    C13      C        0.05000    0.33990    0.37630    1.000
    N7       N        0.98830    0.39300    0.25860    1.000
    C14      C        0.22500    0.17350    0.80910    1.000
    N8       N        0.27320    0.11090    0.90980    1.000
    C15      C        0.48140    0.40860    0.07710    1.000
    H7       H        0.54910    0.34250    0.07510    1.000
    C16      C        0.27390    0.40920    0.07840    1.000
    H8       H        0.20090    0.34350    0.07380    1.000
    Fe1      Fe       0.38070    0.00000    0.08200    1.000
    N9       N        0.08500    0.00000    0.07870    1.000
    N10      N        0.67800    0.00000    0.08590    1.000
    Fe2      Fe       0.88070    0.50000    0.08200    1.000
    N11      N        0.58500    0.50000    0.07870    1.000
    N12      N        0.17800    0.50000    0.08590    1.000
