# CIF file generated by openbabel 3.1.0, see https://openbabel.org
data_I
_chemical_name_common 'image0'
_cell_length_a 21.248
_cell_length_b 7.1438
_cell_length_c 15.33
_cell_angle_alpha 90
_cell_angle_beta 90
_cell_angle_gamma 90
_space_group_name_H-M_alt 'P 1'
_space_group_name_Hall 'P 1'
loop_
    _symmetry_equiv_pos_as_xyz
    x,y,z
loop_
    _atom_site_label
    _atom_site_type_symbol
    _atom_site_fract_x
    _atom_site_fract_y
    _atom_site_fract_z
    _atom_site_occupancy
    N1       N        0.43330    0.15300    0.43880    1.000
    C1       C        0.38770    0.90120    0.60850    1.000
    H1       H        0.37700    0.02570    0.61800    1.000
    C2       C        0.25900    0.61400    0.68790    1.000
    C3       C        0.29660    0.61000    0.76140    1.000
    H2       H        0.26430    0.51980    0.64370    1.000
    H3       H        0.32810    0.51510    0.76820    1.000
    N2       N        0.93330    0.65300    0.93880    1.000
    C4       C        0.88770    0.40120    0.10850    1.000
    H4       H        0.87700    0.52570    0.11800    1.000
    C5       C        0.75900    0.11400    0.18790    1.000
    C6       C        0.79660    0.11000    0.26140    1.000
    H5       H        0.76430    0.01980    0.14370    1.000
    H6       H        0.82810    0.01510    0.26820    1.000
    N3       N        0.56670    0.34700    0.43880    1.000
    C7       C        0.61230    0.59880    0.60850    1.000
    H7       H        0.62300    0.47430    0.61800    1.000
    C8       C        0.74100    0.88600    0.68790    1.000
    C9       C        0.70340    0.89000    0.76140    1.000
    H8       H        0.73570    0.98020    0.64370    1.000
    H9       H        0.67190    0.98490    0.76820    1.000
    N4       N        0.06670    0.84700    0.93880    1.000
    C10      C        0.11230    0.09880    0.10850    1.000
    H10      H        0.12300    0.97430    0.11800    1.000
    C11      C        0.24100    0.38600    0.18790    1.000
    C12      C        0.20340    0.39000    0.26140    1.000
    H11      H        0.23570    0.48020    0.14370    1.000
    H12      H        0.17190    0.48490    0.26820    1.000
    N5       N        0.56670    0.65300    0.56120    1.000
    C13      C        0.61230    0.40120    0.39150    1.000
    H13      H        0.62300    0.52570    0.38200    1.000
    C14      C        0.74100    0.11400    0.31210    1.000
    C15      C        0.70340    0.11000    0.23860    1.000
    H14      H        0.73570    0.01980    0.35630    1.000
    H15      H        0.67190    0.01510    0.23180    1.000
    N6       N        0.06670    0.15300    0.06120    1.000
    C16      C        0.11230    0.90120    0.89150    1.000
    H16      H        0.12300    0.02570    0.88200    1.000
    C17      C        0.24100    0.61400    0.81210    1.000
    C18      C        0.20340    0.61000    0.73860    1.000
    H17      H        0.23570    0.51980    0.85630    1.000
    H18      H        0.17190    0.51510    0.73180    1.000
    N7       N        0.43330    0.84700    0.56120    1.000
    C19      C        0.38770    0.09880    0.39150    1.000
    H19      H        0.37700    0.97430    0.38200    1.000
    C20      C        0.25900    0.38600    0.31210    1.000
    C21      C        0.29660    0.39000    0.23860    1.000
    H20      H        0.26430    0.48020    0.35630    1.000
    H21      H        0.32810    0.48490    0.23180    1.000
    N8       N        0.93330    0.34700    0.06120    1.000
    C22      C        0.88770    0.59880    0.89150    1.000
    H22      H        0.87700    0.47430    0.88200    1.000
    C23      C        0.75900    0.88600    0.81210    1.000
    C24      C        0.79660    0.89000    0.73860    1.000
    H23      H        0.76430    0.98020    0.85630    1.000
    H24      H        0.82810    0.98490    0.73180    1.000
    N9       N        0.56670    0.84700    0.56120    1.000
    C25      C        0.61230    0.09880    0.39150    1.000
    H25      H        0.62300    0.97430    0.38200    1.000
    C26      C        0.74100    0.38600    0.31210    1.000
    C27      C        0.70340    0.39000    0.23860    1.000
    H26      H        0.73570    0.48020    0.35630    1.000
    H27      H        0.67190    0.48490    0.23180    1.000
    N10      N        0.06670    0.34700    0.06120    1.000
    C28      C        0.11230    0.59880    0.89150    1.000
    H28      H        0.12300    0.47430    0.88200    1.000
    C29      C        0.24100    0.88600    0.81210    1.000
    C30      C        0.20340    0.89000    0.73860    1.000
    H29      H        0.23570    0.98020    0.85630    1.000
    H30      H        0.17190    0.98490    0.73180    1.000
    N11      N        0.43330    0.65300    0.56120    1.000
    C31      C        0.38770    0.40120    0.39150    1.000
    H31      H        0.37700    0.52570    0.38200    1.000
    C32      C        0.25900    0.11400    0.31210    1.000
    C33      C        0.29660    0.11000    0.23860    1.000
    H32      H        0.26430    0.01980    0.35630    1.000
    H33      H        0.32810    0.01510    0.23180    1.000
    N12      N        0.93330    0.15300    0.06120    1.000
    C34      C        0.88770    0.90120    0.89150    1.000
    H34      H        0.87700    0.02570    0.88200    1.000
    C35      C        0.75900    0.61400    0.81210    1.000
    C36      C        0.79660    0.61000    0.73860    1.000
    H35      H        0.76430    0.51980    0.85630    1.000
    H36      H        0.82810    0.51510    0.73180    1.000
    N13      N        0.43330    0.34700    0.43880    1.000
    C37      C        0.38770    0.59880    0.60850    1.000
    H37      H        0.37700    0.47430    0.61800    1.000
    C38      C        0.25900    0.88600    0.68790    1.000
    C39      C        0.29660    0.89000    0.76140    1.000
    H38      H        0.26430    0.98020    0.64370    1.000
    H39      H        0.32810    0.98490    0.76820    1.000
    N14      N        0.93330    0.84700    0.93880    1.000
    C40      C        0.88770    0.09880    0.10850    1.000
    H40      H        0.87700    0.97430    0.11800    1.000
    C41      C        0.75900    0.38600    0.18790    1.000
    C42      C        0.79660    0.39000    0.26140    1.000
    H41      H        0.76430    0.48020    0.14370    1.000
    H42      H        0.82810    0.48490    0.26820    1.000
    N15      N        0.56670    0.15300    0.43880    1.000
    C43      C        0.61230    0.90120    0.60850    1.000
    H43      H        0.62300    0.02570    0.61800    1.000
    C44      C        0.74100    0.61400    0.68790    1.000
    C45      C        0.70340    0.61000    0.76140    1.000
    H44      H        0.73570    0.51980    0.64370    1.000
    H45      H        0.67190    0.51510    0.76820    1.000
    N16      N        0.06670    0.65300    0.93880    1.000
    C46      C        0.11230    0.40120    0.10850    1.000
    H46      H        0.12300    0.52570    0.11800    1.000
    C47      C        0.24100    0.11400    0.18790    1.000
    C48      C        0.20340    0.11000    0.26140    1.000
    H47      H        0.23570    0.01980    0.14370    1.000
    H48      H        0.17190    0.01510    0.26820    1.000
    Cu1      Cu       0.50000    0.00000    0.50000    1.000
    Cu2      Cu       0.00000    0.50000    0.00000    1.000
    Cu3      Cu       0.50000    0.50000    0.50000    1.000
    Cu4      Cu       0.00000    0.00000    0.00000    1.000
    N17      N        0.35650    0.75000    0.64380    1.000
    C49      C        0.30270    0.75000    0.69660    1.000
    N18      N        0.85650    0.25000    0.14380    1.000
    C50      C        0.80270    0.25000    0.19660    1.000
    N19      N        0.64350    0.75000    0.64380    1.000
    C51      C        0.69730    0.75000    0.69660    1.000
    N20      N        0.14350    0.25000    0.14380    1.000
    C52      C        0.19730    0.25000    0.19660    1.000
    N21      N        0.64350    0.25000    0.35620    1.000
    C53      C        0.69730    0.25000    0.30340    1.000
    N22      N        0.14350    0.75000    0.85620    1.000
    C54      C        0.19730    0.75000    0.80340    1.000
    N23      N        0.35650    0.25000    0.35620    1.000
    C55      C        0.30270    0.25000    0.30340    1.000
    N24      N        0.85650    0.75000    0.85620    1.000
    C56      C        0.80270    0.75000    0.80340    1.000
