# CIF file generated by openbabel 3.1.0, see https://openbabel.org
data_I
_chemical_name_common 'image0'
_cell_length_a 18.8323
_cell_length_b 18.8323
_cell_length_c 38.4958
_cell_angle_alpha 90
_cell_angle_beta 90
_cell_angle_gamma 120
_space_group_name_H-M_alt 'P 1'
_space_group_name_Hall 'P 1'
loop_
    _symmetry_equiv_pos_as_xyz
    x,y,z
loop_
    _atom_site_label
    _atom_site_type_symbol
    _atom_site_fract_x
    _atom_site_fract_y
    _atom_site_fract_z
    _atom_site_occupancy
    Zn1      Zn       0.80750    0.61532    0.99940    1.000
    Zn2      Zn       0.85916    0.71830    0.93531    1.000
    O1       O        0.96630    0.77590    0.96490    1.000
    O2       O        0.92570    0.69520    0.01070    1.000
    C1       C        0.97370    0.75930    0.99550    1.000
    C2       C        0.05040    0.82090    0.01265    1.000
    C3       C        0.10530    0.89360    0.99613    1.000
    H1       H        0.09400    0.90460    0.97330    1.000
    C4       C        0.17670    0.95020    0.01300    1.000
    C5       C        0.19320    0.93420    0.04630    1.000
    H2       H        0.24200    0.97290    0.05790    1.000
    C6       C        0.13830    0.86150    0.06286    1.000
    C7       C        0.06690    0.80480    0.04602    1.000
    H3       H        0.02940    0.75510    0.05730    1.000
    C8       C        0.24340    0.03310    0.99740    1.000
    O3       O        0.22150    0.03950    0.96260    1.000
    O4       O        0.31090    0.08140    0.01230    1.000
    C9       C        0.16720    0.84290    0.09670    1.000
    C10      C        0.18640    0.90280    0.12190    1.000
    C11      C        0.19580    0.88690    0.15630    1.000
    H4       H        0.20900    0.92780    0.17350    1.000
    C12      C        0.18600    0.81110    0.16560    1.000
    C13      C        0.16670    0.75130    0.14040    1.000
    C14      C        0.15730    0.76710    0.10600    1.000
    H5       H        0.14420    0.72620    0.08880    1.000
    O5       O        0.15010    0.67080    0.15070    1.000
    C15      C        0.17960    0.61530    0.16480    1.000
    H6       H        0.20380    0.59840    0.14600    1.000
    H7       H        0.22190    0.64410    0.18290    1.000
    C16      C        0.10780    0.54320    0.17970    1.000
    H8       H        0.06650    0.55800    0.18780    1.000
    C17      C        0.06900    0.47270    0.15270    1.000
    C18      C        0.13490    0.50790    0.21050    1.000
    C19      C        0.14490    0.45250    0.14950    1.000
    O6       O        0.22540    0.99310    0.11600    1.000
    C20      C        0.23400    0.04650    0.14550    1.000
    H9       H        0.28740    0.06630    0.15730    1.000
    H10      H        0.18950    0.01670    0.16260    1.000
    C21      C        0.22860    0.11720    0.12990    1.000
    H11      H        0.17620    0.09400    0.11660    1.000
    C22      C        0.23370    0.18510    0.15350    1.000
    C23      C        0.29860    0.15530    0.10420    1.000
    O7       O        0.03400    0.59140    0.25761    1.000
    O8       O        0.11170    0.63370    0.30300    1.000
    C24      C        0.09660    0.64560    0.27590    1.000
    O9       O        0.36900    0.88650    0.30490    1.000
    O10      O        0.41030    0.96510    0.25670    1.000
    C25      C        0.35820    0.90090    0.27460    1.000
    C26      C        0.19700    0.80530    0.20607    1.000
    C27      C        0.26820    0.86130    0.22321    1.000
    H12      H        0.30830    0.90890    0.21140    1.000
    C28      C        0.28070    0.84760    0.25750    1.000
    C29      C        0.22200    0.77800    0.27480    1.000
    H13      H        0.23050    0.76870    0.29830    1.000
    C30      C        0.15070    0.72210    0.25760    1.000
    C31      C        0.13820    0.73570    0.22330    1.000
    H14      H        0.08950    0.69750    0.21160    1.000
    Zn3      Zn       0.47417    0.94865    0.33273    1.000
    Zn4      Zn       0.52583    0.05163    0.26864    1.000
    O11      O        0.63297    0.10923    0.29823    1.000
    O12      O        0.59237    0.02853    0.34403    1.000
    C32      C        0.64037    0.09263    0.32883    1.000
    C33      C        0.71707    0.15423    0.34598    1.000
    C34      C        0.77197    0.22693    0.32946    1.000
    H15      H        0.76067    0.23793    0.30663    1.000
    C35      C        0.84337    0.28353    0.34633    1.000
    C36      C        0.85987    0.26753    0.37963    1.000
    H16      H        0.90867    0.30623    0.39123    1.000
    C37      C        0.80497    0.19483    0.39619    1.000
    C38      C        0.73357    0.13813    0.37935    1.000
    H17      H        0.69607    0.08843    0.39063    1.000
    C39      C        0.91007    0.36643    0.33073    1.000
    O13      O        0.88817    0.37283    0.29593    1.000
    O14      O        0.97757    0.41473    0.34563    1.000
    C40      C        0.83387    0.17623    0.43003    1.000
    C41      C        0.85307    0.23613    0.45523    1.000
    C42      C        0.86247    0.22023    0.48963    1.000
    H18      H        0.87567    0.26113    0.50683    1.000
    C43      C        0.85267    0.14443    0.49893    1.000
    C44      C        0.83337    0.08463    0.47373    1.000
    C45      C        0.82397    0.10043    0.43933    1.000
    H19      H        0.81087    0.05953    0.42213    1.000
    O15      O        0.81677    0.00413    0.48403    1.000
    C46      C        0.84627    0.94863    0.49813    1.000
    H20      H        0.87047    0.93173    0.47933    1.000
    H21      H        0.88857    0.97743    0.51623    1.000
    C47      C        0.77447    0.87653    0.51303    1.000
    H22      H        0.73317    0.89133    0.52113    1.000
    C48      C        0.73567    0.80603    0.48603    1.000
    C49      C        0.80157    0.84123    0.54383    1.000
    C50      C        0.81157    0.78583    0.48283    1.000
    O16      O        0.89207    0.32643    0.44933    1.000
    C51      C        0.90067    0.37983    0.47883    1.000
    H23      H        0.95407    0.39963    0.49063    1.000
    H24      H        0.85617    0.35003    0.49593    1.000
    C52      C        0.89527    0.45053    0.46323    1.000
    H25      H        0.84287    0.42733    0.44993    1.000
    C53      C        0.90037    0.51843    0.48683    1.000
    C54      C        0.96527    0.48863    0.43753    1.000
    O17      O        0.70067    0.92473    0.59094    1.000
    O18      O        0.77837    0.96703    0.63633    1.000
    C55      C        0.76327    0.97893    0.60923    1.000
    O19      O        0.03567    0.21983    0.63823    1.000
    O20      O        0.07697    0.29843    0.59003    1.000
    C56      C        0.02487    0.23423    0.60793    1.000
    C57      C        0.86367    0.13863    0.53940    1.000
    C58      C        0.93487    0.19463    0.55654    1.000
    H26      H        0.97497    0.24223    0.54473    1.000
    C59      C        0.94737    0.18093    0.59083    1.000
    C60      C        0.88867    0.11133    0.60813    1.000
    H27      H        0.89717    0.10203    0.63163    1.000
    C61      C        0.81737    0.05543    0.59093    1.000
    C62      C        0.80487    0.06903    0.55663    1.000
    H28      H        0.75617    0.03083    0.54493    1.000
    Zn5      Zn       0.14083    0.28199    0.66607    1.000
    Zn6      Zn       0.19249    0.38497    0.60198    1.000
    O21      O        0.29963    0.44257    0.63157    1.000
    O22      O        0.25903    0.36187    0.67737    1.000
    C63      C        0.30703    0.42597    0.66217    1.000
    C64      C        0.38373    0.48757    0.67932    1.000
    C65      C        0.43863    0.56027    0.66280    1.000
    H29      H        0.42733    0.57127    0.63997    1.000
    C66      C        0.51003    0.61687    0.67967    1.000
    C67      C        0.52653    0.60087    0.71297    1.000
    H30      H        0.57533    0.63957    0.72457    1.000
    C68      C        0.47163    0.52817    0.72953    1.000
    C69      C        0.40023    0.47147    0.71269    1.000
    H31      H        0.36273    0.42177    0.72397    1.000
    C70      C        0.57673    0.69977    0.66407    1.000
    O23      O        0.55483    0.70617    0.62927    1.000
    O24      O        0.64423    0.74807    0.67897    1.000
    C71      C        0.50053    0.50957    0.76337    1.000
    C72      C        0.51973    0.56947    0.78857    1.000
    C73      C        0.52913    0.55357    0.82297    1.000
    H32      H        0.54233    0.59447    0.84017    1.000
    C74      C        0.51933    0.47777    0.83227    1.000
    C75      C        0.50003    0.41797    0.80707    1.000
    C76      C        0.49063    0.43377    0.77267    1.000
    H33      H        0.47753    0.39287    0.75547    1.000
    O25      O        0.48343    0.33747    0.81737    1.000
    C77      C        0.51293    0.28197    0.83147    1.000
    H34      H        0.53713    0.26507    0.81267    1.000
    H35      H        0.55523    0.31077    0.84957    1.000
    C78      C        0.44113    0.20987    0.84637    1.000
    H36      H        0.39983    0.22467    0.85447    1.000
    C79      C        0.40233    0.13937    0.81937    1.000
    C80      C        0.46823    0.17457    0.87717    1.000
    C81      C        0.47823    0.11917    0.81617    1.000
    O26      O        0.55873    0.65977    0.78267    1.000
    C82      C        0.56733    0.71317    0.81217    1.000
    H37      H        0.62073    0.73297    0.82397    1.000
    H38      H        0.52283    0.68337    0.82927    1.000
    C83      C        0.56193    0.78387    0.79657    1.000
    H39      H        0.50953    0.76067    0.78327    1.000
    C84      C        0.56703    0.85177    0.82017    1.000
    C85      C        0.63193    0.82197    0.77087    1.000
    O27      O        0.36733    0.25807    0.92428    1.000
    O28      O        0.44503    0.30037    0.96967    1.000
    C86      C        0.42993    0.31227    0.94257    1.000
    O29      O        0.70233    0.55317    0.97157    1.000
    O30      O        0.74363    0.63177    0.92337    1.000
    C87      C        0.69153    0.56757    0.94127    1.000
    C88      C        0.53033    0.47197    0.87274    1.000
    C89      C        0.60153    0.52797    0.88988    1.000
    H40      H        0.64163    0.57557    0.87807    1.000
    C90      C        0.61403    0.51427    0.92417    1.000
    C91      C        0.55533    0.44467    0.94147    1.000
    H41      H        0.56383    0.43537    0.96497    1.000
    C92      C        0.48403    0.38877    0.92427    1.000
    C93      C        0.47153    0.40237    0.88997    1.000
    H42      H        0.42283    0.36417    0.87827    1.000
    Zn7      Zn       0.38468    0.19218    0.99940    1.000
    Zn8      Zn       0.28170    0.14086    0.93531    1.000
    O31      O        0.22410    0.19040    0.96490    1.000
    O32      O        0.30480    0.23050    0.01070    1.000
    C94      C        0.24070    0.21440    0.99550    1.000
    C95      C        0.17910    0.22950    0.01265    1.000
    C96      C        0.10640    0.21170    0.99613    1.000
    H43      H        0.09540    0.18940    0.97330    1.000
    C97      C        0.04980    0.22650    0.01300    1.000
    C98      C        0.06580    0.25900    0.04630    1.000
    H44      H        0.02710    0.26910    0.05790    1.000
    C99      C        0.13850    0.27680    0.06286    1.000
    C100     C        0.19520    0.26210    0.04602    1.000
    H45      H        0.24490    0.27430    0.05730    1.000
    C101     C        0.96690    0.21030    0.99740    1.000
    O33      O        0.96050    0.18200    0.96260    1.000
    O34      O        0.91860    0.22950    0.01230    1.000
    C102     C        0.15710    0.32430    0.09670    1.000
    C103     C        0.09720    0.28360    0.12190    1.000
    C104     C        0.11310    0.30890    0.15630    1.000
    H46      H        0.07220    0.28120    0.17350    1.000
    C105     C        0.18890    0.37490    0.16560    1.000
    C106     C        0.24870    0.41540    0.14040    1.000
    C107     C        0.23290    0.39020    0.10600    1.000
    H47      H        0.27380    0.41800    0.08880    1.000
    O35      O        0.32920    0.47930    0.15070    1.000
    C108     C        0.38470    0.56430    0.16480    1.000
    H48      H        0.40160    0.60540    0.14600    1.000
    H49      H        0.35590    0.57780    0.18290    1.000
    C109     C        0.45680    0.56460    0.17970    1.000
    H50      H        0.44200    0.50850    0.18780    1.000
    C110     C        0.52730    0.59630    0.15270    1.000
    C111     C        0.49210    0.62700    0.21050    1.000
    C112     C        0.54750    0.69240    0.14950    1.000
    O36      O        0.00690    0.23230    0.11600    1.000
    C113     C        0.95350    0.18750    0.14550    1.000
    H51      H        0.93370    0.22110    0.15730    1.000
    H52      H        0.98330    0.17280    0.16260    1.000
    C114     C        0.88280    0.11140    0.12990    1.000
    H53      H        0.90600    0.08220    0.11660    1.000
    C115     C        0.81490    0.04860    0.15350    1.000
    C116     C        0.84470    0.14330    0.10420    1.000
    O37      O        0.40860    0.44260    0.25761    1.000
    O38      O        0.36630    0.47800    0.30300    1.000
    C117     C        0.35440    0.45100    0.27590    1.000
    O39      O        0.11350    0.48250    0.30490    1.000
    O40      O        0.03490    0.44520    0.25670    1.000
    C118     C        0.09910    0.45730    0.27460    1.000
    C119     C        0.19470    0.39170    0.20607    1.000
    C120     C        0.13870    0.40690    0.22321    1.000
    H54      H        0.09110    0.39940    0.21140    1.000
    C121     C        0.15240    0.43310    0.25750    1.000
    C122     C        0.22200    0.44400    0.27480    1.000
    H55      H        0.23130    0.46180    0.29830    1.000
    C123     C        0.27790    0.42860    0.25760    1.000
    C124     C        0.26430    0.40250    0.22330    1.000
    H56      H        0.30250    0.39200    0.21160    1.000
    Zn9      Zn       0.05135    0.52551    0.33273    1.000
    Zn10     Zn       0.94837    0.47419    0.26864    1.000
    O41      O        0.89077    0.52373    0.29823    1.000
    O42      O        0.97147    0.56383    0.34403    1.000
    C125     C        0.90737    0.54773    0.32883    1.000
    C126     C        0.84577    0.56283    0.34598    1.000
    C127     C        0.77307    0.54503    0.32946    1.000
    H57      H        0.76207    0.52273    0.30663    1.000
    C128     C        0.71647    0.55983    0.34633    1.000
    C129     C        0.73247    0.59233    0.37963    1.000
    H58      H        0.69377    0.60243    0.39123    1.000
    C130     C        0.80517    0.61013    0.39619    1.000
    C131     C        0.86187    0.59543    0.37935    1.000
    H59      H        0.91157    0.60763    0.39063    1.000
    C132     C        0.63357    0.54363    0.33073    1.000
    O43      O        0.62717    0.51533    0.29593    1.000
    O44      O        0.58527    0.56283    0.34563    1.000
    C133     C        0.82377    0.65763    0.43003    1.000
    C134     C        0.76387    0.61693    0.45523    1.000
    C135     C        0.77977    0.64223    0.48963    1.000
    H60      H        0.73887    0.61453    0.50683    1.000
    C136     C        0.85557    0.70823    0.49893    1.000
    C137     C        0.91537    0.74873    0.47373    1.000
    C138     C        0.89957    0.72353    0.43933    1.000
    H61      H        0.94047    0.75133    0.42213    1.000
    O45      O        0.99587    0.81263    0.48403    1.000
    C139     C        0.05137    0.89763    0.49813    1.000
    H62      H        0.06827    0.93873    0.47933    1.000
    H63      H        0.02257    0.91113    0.51623    1.000
    C140     C        0.12347    0.89793    0.51303    1.000
    H64      H        0.10867    0.84183    0.52113    1.000
    C141     C        0.19397    0.92963    0.48603    1.000
    C142     C        0.15877    0.96033    0.54383    1.000
    C143     C        0.21417    0.02573    0.48283    1.000
    O46      O        0.67357    0.56563    0.44933    1.000
    C144     C        0.62017    0.52083    0.47883    1.000
    H65      H        0.60037    0.55443    0.49063    1.000
    H66      H        0.64997    0.50613    0.49593    1.000
    C145     C        0.54947    0.44473    0.46323    1.000
    H67      H        0.57267    0.41553    0.44993    1.000
    C146     C        0.48157    0.38193    0.48683    1.000
    C147     C        0.51137    0.47663    0.43753    1.000
    O47      O        0.07527    0.77593    0.59094    1.000
    O48      O        0.03297    0.81133    0.63633    1.000
    C148     C        0.02107    0.78433    0.60923    1.000
    O49      O        0.78017    0.81583    0.63823    1.000
    O50      O        0.70157    0.77853    0.59003    1.000
    C149     C        0.76577    0.79063    0.60793    1.000
    C150     C        0.86137    0.72503    0.53940    1.000
    C151     C        0.80537    0.74023    0.55654    1.000
    H68      H        0.75777    0.73273    0.54473    1.000
    C152     C        0.81907    0.76643    0.59083    1.000
    C153     C        0.88867    0.77733    0.60813    1.000
    H69      H        0.89797    0.79513    0.63163    1.000
    C154     C        0.94457    0.76193    0.59093    1.000
    C155     C        0.93097    0.73583    0.55663    1.000
    H70      H        0.96917    0.72533    0.54493    1.000
    Zn11     Zn       0.71801    0.85885    0.66607    1.000
    Zn12     Zn       0.61503    0.80753    0.60198    1.000
    O51      O        0.55743    0.85707    0.63157    1.000
    O52      O        0.63813    0.89717    0.67737    1.000
    C156     C        0.57403    0.88107    0.66217    1.000
    C157     C        0.51243    0.89617    0.67932    1.000
    C158     C        0.43973    0.87837    0.66280    1.000
    H71      H        0.42873    0.85607    0.63997    1.000
    C159     C        0.38313    0.89317    0.67967    1.000
    C160     C        0.39913    0.92567    0.71297    1.000
    H72      H        0.36043    0.93577    0.72457    1.000
    C161     C        0.47183    0.94347    0.72953    1.000
    C162     C        0.52853    0.92877    0.71269    1.000
    H73      H        0.57823    0.94097    0.72397    1.000
    C163     C        0.30023    0.87697    0.66407    1.000
    O53      O        0.29383    0.84867    0.62927    1.000
    O54      O        0.25193    0.89617    0.67897    1.000
    C164     C        0.49043    0.99097    0.76337    1.000
    C165     C        0.43053    0.95027    0.78857    1.000
    C166     C        0.44643    0.97557    0.82297    1.000
    H74      H        0.40553    0.94787    0.84017    1.000
    C167     C        0.52223    0.04157    0.83227    1.000
    C168     C        0.58203    0.08207    0.80707    1.000
    C169     C        0.56623    0.05687    0.77267    1.000
    H75      H        0.60713    0.08467    0.75547    1.000
    O55      O        0.66253    0.14597    0.81737    1.000
    C170     C        0.71803    0.23097    0.83147    1.000
    H76      H        0.73493    0.27207    0.81267    1.000
    H77      H        0.68923    0.24447    0.84957    1.000
    C171     C        0.79013    0.23127    0.84637    1.000
    H78      H        0.77533    0.17517    0.85447    1.000
    C172     C        0.86063    0.26297    0.81937    1.000
    C173     C        0.82543    0.29367    0.87717    1.000
    C174     C        0.88083    0.35907    0.81617    1.000
    O56      O        0.34023    0.89897    0.78267    1.000
    C175     C        0.28683    0.85417    0.81217    1.000
    H79      H        0.26703    0.88777    0.82397    1.000
    H80      H        0.31663    0.83947    0.82927    1.000
    C176     C        0.21613    0.77807    0.79657    1.000
    H81      H        0.23933    0.74887    0.78327    1.000
    C177     C        0.14823    0.71527    0.82017    1.000
    C178     C        0.17803    0.80997    0.77087    1.000
    O57      O        0.74193    0.10927    0.92428    1.000
    O58      O        0.69963    0.14467    0.96967    1.000
    C179     C        0.68773    0.11767    0.94257    1.000
    O59      O        0.44683    0.14917    0.97157    1.000
    O60      O        0.36823    0.11187    0.92337    1.000
    C180     C        0.43243    0.12397    0.94127    1.000
    C181     C        0.52803    0.05837    0.87274    1.000
    C182     C        0.47203    0.07357    0.88988    1.000
    H82      H        0.42443    0.06607    0.87807    1.000
    C183     C        0.48573    0.09977    0.92417    1.000
    C184     C        0.55533    0.11067    0.94147    1.000
    H83      H        0.56463    0.12847    0.96497    1.000
    C185     C        0.61123    0.09527    0.92427    1.000
    C186     C        0.59763    0.06917    0.88997    1.000
    H84      H        0.63583    0.05867    0.87827    1.000
    Zn13     Zn       0.80782    0.19250    0.99940    1.000
    Zn14     Zn       0.85914    0.14084    0.93531    1.000
    O61      O        0.80960    0.03370    0.96490    1.000
    O62      O        0.76950    0.07430    0.01070    1.000
    C187     C        0.78560    0.02630    0.99550    1.000
    C188     C        0.77050    0.94960    0.01265    1.000
    C189     C        0.78830    0.89470    0.99613    1.000
    H85      H        0.81060    0.90600    0.97330    1.000
    C190     C        0.77350    0.82330    0.01300    1.000
    C191     C        0.74100    0.80680    0.04630    1.000
    H86      H        0.73090    0.75800    0.05790    1.000
    C192     C        0.72320    0.86170    0.06286    1.000
    C193     C        0.73790    0.93310    0.04602    1.000
    H87      H        0.72570    0.97060    0.05730    1.000
    C194     C        0.78970    0.75660    0.99740    1.000
    O63      O        0.81800    0.77850    0.96260    1.000
    O64      O        0.77050    0.68910    0.01230    1.000
    C195     C        0.67570    0.83280    0.09670    1.000
    C196     C        0.71640    0.81360    0.12190    1.000
    C197     C        0.69110    0.80420    0.15630    1.000
    H88      H        0.71880    0.79100    0.17350    1.000
    C198     C        0.62510    0.81400    0.16560    1.000
    C199     C        0.58460    0.83330    0.14040    1.000
    C200     C        0.60980    0.84270    0.10600    1.000
    H89      H        0.58200    0.85580    0.08880    1.000
    O65      O        0.52070    0.84990    0.15070    1.000
    C201     C        0.43570    0.82040    0.16480    1.000
    H90      H        0.39460    0.79620    0.14600    1.000
    H91      H        0.42220    0.77810    0.18290    1.000
    C202     C        0.43540    0.89220    0.17970    1.000
    H92      H        0.49150    0.93350    0.18780    1.000
    C203     C        0.40370    0.93100    0.15270    1.000
    C204     C        0.37300    0.86510    0.21050    1.000
    C205     C        0.30760    0.85510    0.14950    1.000
    O66      O        0.76770    0.77460    0.11600    1.000
    C206     C        0.81250    0.76600    0.14550    1.000
    H93      H        0.77890    0.71260    0.15730    1.000
    H94      H        0.82720    0.81050    0.16260    1.000
    C207     C        0.88860    0.77140    0.12990    1.000
    H95      H        0.91780    0.82380    0.11660    1.000
    C208     C        0.95140    0.76630    0.15350    1.000
    C209     C        0.85670    0.70140    0.10420    1.000
    O67      O        0.55740    0.96600    0.25761    1.000
    O68      O        0.52200    0.88830    0.30300    1.000
    C210     C        0.54900    0.90340    0.27590    1.000
    O69      O        0.51750    0.63100    0.30490    1.000
    O70      O        0.55480    0.58970    0.25670    1.000
    C211     C        0.54270    0.64180    0.27460    1.000
    C212     C        0.60830    0.80300    0.20607    1.000
    C213     C        0.59310    0.73180    0.22321    1.000
    H96      H        0.60060    0.69170    0.21140    1.000
    C214     C        0.56690    0.71930    0.25750    1.000
    C215     C        0.55600    0.77800    0.27480    1.000
    H97      H        0.53820    0.76950    0.29830    1.000
    C216     C        0.57140    0.84930    0.25760    1.000
    C217     C        0.59750    0.86180    0.22330    1.000
    H98      H        0.60800    0.91050    0.21160    1.000
    Zn15     Zn       0.47449    0.52583    0.33273    1.000
    Zn16     Zn       0.52581    0.47417    0.26864    1.000
    O71      O        0.47627    0.36703    0.29823    1.000
    O72      O        0.43617    0.40763    0.34403    1.000
    C218     C        0.45227    0.35963    0.32883    1.000
    C219     C        0.43717    0.28293    0.34598    1.000
    C220     C        0.45497    0.22803    0.32946    1.000
    H99      H        0.47727    0.23933    0.30663    1.000
    C221     C        0.44017    0.15663    0.34633    1.000
    C222     C        0.40767    0.14013    0.37963    1.000
    H100     H        0.39757    0.09133    0.39123    1.000
    C223     C        0.38987    0.19503    0.39619    1.000
    C224     C        0.40457    0.26643    0.37935    1.000
    H101     H        0.39237    0.30393    0.39063    1.000
    C225     C        0.45637    0.08993    0.33073    1.000
    O73      O        0.48467    0.11183    0.29593    1.000
    O74      O        0.43717    0.02243    0.34563    1.000
    C226     C        0.34237    0.16613    0.43003    1.000
    C227     C        0.38307    0.14693    0.45523    1.000
    C228     C        0.35777    0.13753    0.48963    1.000
    H102     H        0.38547    0.12433    0.50683    1.000
    C229     C        0.29177    0.14733    0.49893    1.000
    C230     C        0.25127    0.16663    0.47373    1.000
    C231     C        0.27647    0.17603    0.43933    1.000
    H103     H        0.24867    0.18913    0.42213    1.000
    O75      O        0.18737    0.18323    0.48403    1.000
    C232     C        0.10237    0.15373    0.49813    1.000
    H104     H        0.06127    0.12953    0.47933    1.000
    H105     H        0.08887    0.11143    0.51623    1.000
    C233     C        0.10207    0.22553    0.51303    1.000
    H106     H        0.15817    0.26683    0.52113    1.000
    C234     C        0.07037    0.26433    0.48603    1.000
    C235     C        0.03967    0.19843    0.54383    1.000
    C236     C        0.97427    0.18843    0.48283    1.000
    O76      O        0.43437    0.10793    0.44933    1.000
    C237     C        0.47917    0.09933    0.47883    1.000
    H107     H        0.44557    0.04593    0.49063    1.000
    H108     H        0.49387    0.14383    0.49593    1.000
    C238     C        0.55527    0.10473    0.46323    1.000
    H109     H        0.58447    0.15713    0.44993    1.000
    C239     C        0.61807    0.09963    0.48683    1.000
    C240     C        0.52337    0.03473    0.43753    1.000
    O77      O        0.22407    0.29933    0.59094    1.000
    O78      O        0.18867    0.22163    0.63633    1.000
    C241     C        0.21567    0.23673    0.60923    1.000
    O79      O        0.18417    0.96433    0.63823    1.000
    O80      O        0.22147    0.92303    0.59003    1.000
    C242     C        0.20937    0.97513    0.60793    1.000
    C243     C        0.27497    0.13633    0.53940    1.000
    C244     C        0.25977    0.06513    0.55654    1.000
    H110     H        0.26727    0.02503    0.54473    1.000
    C245     C        0.23357    0.05263    0.59083    1.000
    C246     C        0.22267    0.11133    0.60813    1.000
    H111     H        0.20487    0.10283    0.63163    1.000
    C247     C        0.23807    0.18263    0.59093    1.000
    C248     C        0.26417    0.19513    0.55663    1.000
    H112     H        0.27467    0.24383    0.54493    1.000
    Zn17     Zn       0.14115    0.85917    0.66607    1.000
    Zn18     Zn       0.19247    0.80751    0.60198    1.000
    O81      O        0.14293    0.70037    0.63157    1.000
    O82      O        0.10283    0.74097    0.67737    1.000
    C249     C        0.11893    0.69297    0.66217    1.000
    C250     C        0.10383    0.61627    0.67932    1.000
    C251     C        0.12163    0.56137    0.66280    1.000
    H113     H        0.14393    0.57267    0.63997    1.000
    C252     C        0.10683    0.48997    0.67967    1.000
    C253     C        0.07433    0.47347    0.71297    1.000
    H114     H        0.06423    0.42467    0.72457    1.000
    C254     C        0.05653    0.52837    0.72953    1.000
    C255     C        0.07123    0.59977    0.71269    1.000
    H115     H        0.05903    0.63727    0.72397    1.000
    C256     C        0.12303    0.42327    0.66407    1.000
    O83      O        0.15133    0.44517    0.62927    1.000
    O84      O        0.10383    0.35577    0.67897    1.000
    C257     C        0.00903    0.49947    0.76337    1.000
    C258     C        0.04973    0.48027    0.78857    1.000
    C259     C        0.02443    0.47087    0.82297    1.000
    H116     H        0.05213    0.45767    0.84017    1.000
    C260     C        0.95843    0.48067    0.83227    1.000
    C261     C        0.91793    0.49997    0.80707    1.000
    C262     C        0.94313    0.50937    0.77267    1.000
    H117     H        0.91533    0.52247    0.75547    1.000
    O85      O        0.85403    0.51657    0.81737    1.000
    C263     C        0.76903    0.48707    0.83147    1.000
    H118     H        0.72793    0.46287    0.81267    1.000
    H119     H        0.75553    0.44477    0.84957    1.000
    C264     C        0.76873    0.55887    0.84637    1.000
    H120     H        0.82483    0.60017    0.85447    1.000
    C265     C        0.73703    0.59767    0.81937    1.000
    C266     C        0.70633    0.53177    0.87717    1.000
    C267     C        0.64093    0.52177    0.81617    1.000
    O86      O        0.10103    0.44127    0.78267    1.000
    C268     C        0.14583    0.43267    0.81217    1.000
    H121     H        0.11223    0.37927    0.82397    1.000
    H122     H        0.16053    0.47717    0.82927    1.000
    C269     C        0.22193    0.43807    0.79657    1.000
    H123     H        0.25113    0.49047    0.78327    1.000
    C270     C        0.28473    0.43297    0.82017    1.000
    C271     C        0.19003    0.36807    0.77087    1.000
    O87      O        0.89073    0.63267    0.92428    1.000
    O88      O        0.85533    0.55497    0.96967    1.000
    C272     C        0.88233    0.57007    0.94257    1.000
    O89      O        0.85083    0.29767    0.97157    1.000
    O90      O        0.88813    0.25637    0.92337    1.000
    C273     C        0.87603    0.30847    0.94127    1.000
    C274     C        0.94163    0.46967    0.87274    1.000
    C275     C        0.92643    0.39847    0.88988    1.000
    H124     H        0.93393    0.35837    0.87807    1.000
    C276     C        0.90023    0.38597    0.92417    1.000
    C277     C        0.88933    0.44467    0.94147    1.000
    H125     H        0.87153    0.43617    0.96497    1.000
    C278     C        0.90473    0.51597    0.92427    1.000
    C279     C        0.93083    0.52847    0.88997    1.000
    H126     H        0.94133    0.57717    0.87827    1.000
