# CIF file generated by openbabel 3.1.0, see https://openbabel.org
data_I
_chemical_name_common 'image0'
_cell_length_a 18.057
_cell_length_b 18.057
_cell_length_c 13.4495
_cell_angle_alpha 90
_cell_angle_beta 90
_cell_angle_gamma 90
_space_group_name_H-M_alt 'P 1'
_space_group_name_Hall 'P 1'
loop_
    _symmetry_equiv_pos_as_xyz
    x,y,z
loop_
    _atom_site_label
    _atom_site_type_symbol
    _atom_site_fract_x
    _atom_site_fract_y
    _atom_site_fract_z
    _atom_site_occupancy
    C1       C        0.14420    0.16290    0.52490    1.000
    O1       O        0.25527    0.23307    0.85267    1.000
    C2       C        0.92949    0.22031    0.73015    1.000
    O2       O        0.88760    0.19548    0.66253    1.000
    C3       C        0.18675    0.24656    0.86290    1.000
    C4       C        0.13528    0.22584    0.78173    1.000
    C5       C        0.05928    0.23503    0.79313    1.000
    H1       H        0.04040    0.25460    0.85180    1.000
    O3       O        0.16414    0.27841    0.93897    1.000
    O4       O        0.90231    0.24840    0.80605    1.000
    C6       C        0.16340    0.21920    0.68410    1.000
    C7       C        0.11740    0.20090    0.60650    1.000
    C8       C        0.04030    0.20210    0.61740    1.000
    C9       C        0.01188    0.21490    0.71686    1.000
    C10      C        0.14580    0.11490    0.54240    1.000
    C11      C        0.16350    0.17930    0.70320    1.000
    C12      C        0.03730    0.17210    0.63900    1.000
    C13      C        0.11390    0.15750    0.62890    1.000
    O5       O        0.11490    0.14580    0.45760    1.000
    C14      C        0.85580    0.83710    0.02490    1.000
    O6       O        0.74473    0.76693    0.35267    1.000
    C15      C        0.07051    0.77969    0.23015    1.000
    O7       O        0.11240    0.80452    0.16253    1.000
    C16      C        0.81325    0.75344    0.36290    1.000
    C17      C        0.86472    0.77416    0.28173    1.000
    C18      C        0.94072    0.76497    0.29313    1.000
    H2       H        0.95960    0.74540    0.35180    1.000
    O8       O        0.83586    0.72159    0.43897    1.000
    O9       O        0.09769    0.75160    0.30605    1.000
    C19      C        0.83660    0.78080    0.18410    1.000
    C20      C        0.88260    0.79910    0.10650    1.000
    C21      C        0.95970    0.79790    0.11740    1.000
    C22      C        0.98812    0.78510    0.21686    1.000
    C23      C        0.85420    0.88510    0.04240    1.000
    C24      C        0.83650    0.82070    0.20320    1.000
    C25      C        0.96270    0.82790    0.13900    1.000
    C26      C        0.88610    0.84250    0.12890    1.000
    O10      O        0.88510    0.85420    0.95760    1.000
    C27      C        0.33710    0.64420    0.77490    1.000
    O11      O        0.26693    0.75527    0.10267    1.000
    C28      C        0.27969    0.42949    0.98015    1.000
    O12      O        0.30452    0.38760    0.91253    1.000
    C29      C        0.25344    0.68675    0.11290    1.000
    C30      C        0.27416    0.63528    0.03173    1.000
    C31      C        0.26497    0.55928    0.04313    1.000
    H3       H        0.24540    0.54040    0.10180    1.000
    O13      O        0.22159    0.66414    0.18897    1.000
    O14      O        0.25160    0.40231    0.05605    1.000
    C32      C        0.28080    0.66340    0.93410    1.000
    C33      C        0.29910    0.61740    0.85650    1.000
    C34      C        0.29790    0.54030    0.86740    1.000
    C35      C        0.28510    0.51188    0.96686    1.000
    C36      C        0.38510    0.64580    0.79240    1.000
    C37      C        0.32070    0.66350    0.95320    1.000
    C38      C        0.32790    0.53730    0.88900    1.000
    C39      C        0.34250    0.61390    0.87890    1.000
    O15      O        0.35420    0.61490    0.70760    1.000
    C40      C        0.66290    0.35580    0.27490    1.000
    O16      O        0.73307    0.24473    0.60267    1.000
    C41      C        0.72031    0.57051    0.48015    1.000
    O17      O        0.69548    0.61240    0.41253    1.000
    C42      C        0.74656    0.31325    0.61290    1.000
    C43      C        0.72584    0.36472    0.53173    1.000
    C44      C        0.73503    0.44072    0.54313    1.000
    H4       H        0.75460    0.45960    0.60180    1.000
    O18      O        0.77841    0.33586    0.68897    1.000
    O19      O        0.74840    0.59769    0.55605    1.000
    C45      C        0.71920    0.33660    0.43410    1.000
    C46      C        0.70090    0.38260    0.35650    1.000
    C47      C        0.70210    0.45970    0.36740    1.000
    C48      C        0.71490    0.48812    0.46686    1.000
    C49      C        0.61490    0.35420    0.29240    1.000
    C50      C        0.67930    0.33650    0.45320    1.000
    C51      C        0.67210    0.46270    0.38900    1.000
    C52      C        0.65750    0.38610    0.37890    1.000
    O20      O        0.64580    0.38510    0.20760    1.000
    C53      C        0.35580    0.66290    0.72510    1.000
    O21      O        0.24473    0.73307    0.39733    1.000
    C54      C        0.57051    0.72031    0.51985    1.000
    O22      O        0.61240    0.69548    0.58747    1.000
    C55      C        0.31325    0.74656    0.38710    1.000
    C56      C        0.36472    0.72584    0.46827    1.000
    C57      C        0.44072    0.73503    0.45687    1.000
    H5       H        0.45960    0.75460    0.39820    1.000
    O23      O        0.33586    0.77841    0.31103    1.000
    O24      O        0.59769    0.74840    0.44395    1.000
    C58      C        0.33660    0.71920    0.56590    1.000
    C59      C        0.38260    0.70090    0.64350    1.000
    C60      C        0.45970    0.70210    0.63260    1.000
    C61      C        0.48812    0.71490    0.53314    1.000
    C62      C        0.33650    0.67930    0.54680    1.000
    C63      C        0.46270    0.67210    0.61100    1.000
    C64      C        0.38610    0.65750    0.62110    1.000
    C65      C        0.64420    0.33710    0.22510    1.000
    O25      O        0.75527    0.26693    0.89733    1.000
    C66      C        0.42949    0.27969    0.01985    1.000
    O26      O        0.38760    0.30452    0.08747    1.000
    C67      C        0.68675    0.25344    0.88710    1.000
    C68      C        0.63528    0.27416    0.96827    1.000
    C69      C        0.55928    0.26497    0.95687    1.000
    H6       H        0.54040    0.24540    0.89820    1.000
    O27      O        0.66414    0.22159    0.81103    1.000
    O28      O        0.40231    0.25160    0.94395    1.000
    C70      C        0.66340    0.28080    0.06590    1.000
    C71      C        0.61740    0.29910    0.14350    1.000
    C72      C        0.54030    0.29790    0.13260    1.000
    C73      C        0.51188    0.28510    0.03314    1.000
    C74      C        0.66350    0.32070    0.04680    1.000
    C75      C        0.53730    0.32790    0.11100    1.000
    C76      C        0.61390    0.34250    0.12110    1.000
    C77      C        0.16290    0.14420    0.47510    1.000
    O29      O        0.23307    0.25527    0.14733    1.000
    C78      C        0.22031    0.92949    0.26985    1.000
    O30      O        0.19548    0.88760    0.33747    1.000
    C79      C        0.24656    0.18675    0.13710    1.000
    C80      C        0.22584    0.13528    0.21827    1.000
    C81      C        0.23503    0.05928    0.20687    1.000
    H7       H        0.25460    0.04040    0.14820    1.000
    O31      O        0.27841    0.16414    0.06103    1.000
    O32      O        0.24840    0.90231    0.19395    1.000
    C82      C        0.21920    0.16340    0.31590    1.000
    C83      C        0.20090    0.11740    0.39350    1.000
    C84      C        0.20210    0.04030    0.38260    1.000
    C85      C        0.21490    0.01188    0.28314    1.000
    C86      C        0.17930    0.16350    0.29680    1.000
    C87      C        0.17210    0.03730    0.36100    1.000
    C88      C        0.15750    0.11390    0.37110    1.000
    C89      C        0.83710    0.85580    0.97510    1.000
    O33      O        0.76693    0.74473    0.64733    1.000
    C90      C        0.77969    0.07051    0.76985    1.000
    O34      O        0.80452    0.11240    0.83747    1.000
    C91      C        0.75344    0.81325    0.63710    1.000
    C92      C        0.77416    0.86472    0.71827    1.000
    C93      C        0.76497    0.94072    0.70687    1.000
    H8       H        0.74540    0.95960    0.64820    1.000
    O35      O        0.72159    0.83586    0.56103    1.000
    O36      O        0.75160    0.09769    0.69395    1.000
    C94      C        0.78080    0.83660    0.81590    1.000
    C95      C        0.79910    0.88260    0.89350    1.000
    C96      C        0.79790    0.95970    0.88260    1.000
    C97      C        0.78510    0.98812    0.78314    1.000
    C98      C        0.82070    0.83650    0.79680    1.000
    C99      C        0.82790    0.96270    0.86100    1.000
    C100     C        0.84250    0.88610    0.87110    1.000
    In1      In       0.28400    0.28400    0.00000    1.000
    In2      In       0.71600    0.71600    0.50000    1.000
    In3      In       0.21600    0.78400    0.25000    1.000
    In4      In       0.78400    0.21600    0.75000    1.000
