# CIF file generated by openbabel 3.1.0, see https://openbabel.org
data_I
_chemical_name_common 'TETZEZ_clean'
_cell_length_a 22.6778
_cell_length_b 24.1597
_cell_length_c 25.3477
_cell_angle_alpha 66.5806
_cell_angle_beta 81.054
_cell_angle_gamma 88.037
_space_group_name_H-M_alt 'P 1'
_space_group_name_Hall 'P 1'
loop_
    _symmetry_equiv_pos_as_xyz
    x,y,z
loop_
    _atom_site_label
    _atom_site_type_symbol
    _atom_site_fract_x
    _atom_site_fract_y
    _atom_site_fract_z
    _atom_site_occupancy
    Zn1      Zn       0.77416    0.16353    0.50638    1.000
    Zn2      Zn       0.61937    0.13799    0.54098    1.000
    Zn3      Zn       0.71445    0.49848    0.89743    1.000
    Zn4      Zn       0.56130    0.47108    0.91728    1.000
    H1       H        0.05210    0.23040    0.50830    1.000
    H2       H        0.33460    0.16820    0.51520    1.000
    H3       H        0.98730    0.40580    0.91530    1.000
    H4       H        0.27780    0.39980    0.00560    1.000
    H5       H        0.14290    0.17390    0.52350    1.000
    H6       H        0.24150    0.17880    0.53690    1.000
    H7       H        0.27320    0.31790    0.37730    1.000
    H8       H        0.17770    0.30990    0.36590    1.000
    H9       H        0.85670    0.20820    0.55970    1.000
    H10      H        0.95410    0.22810    0.55350    1.000
    H11      H        0.98670    0.19090    0.40970    1.000
    H12      H        0.88520    0.16960    0.42490    1.000
    H13      H        0.49820    0.07940    0.57710    1.000
    H14      H        0.40070    0.10010    0.55420    1.000
    H15      H        0.44880    0.27260    0.46770    1.000
    H16      H        0.54700    0.24670    0.48620    1.000
    H17      H        0.07970    0.37900    0.05610    1.000
    H18      H        0.18290    0.37610    0.03770    1.000
    H19      H        0.17780    0.44560    0.86590    1.000
    H20      H        0.07450    0.44850    0.88420    1.000
    H21      H        0.81640    0.44580    0.85220    1.000
    H22      H        0.92190    0.42790    0.86130    1.000
    H23      H        0.88970    0.46470    0.99990    1.000
    H24      H        0.79370    0.49090    0.97890    1.000
    H25      H        0.46860    0.44360    0.85870    1.000
    H26      H        0.36600    0.43280    0.86910    1.000
    H27      H        0.36530    0.40620    0.03770    1.000
    H28      H        0.46710    0.42380    0.01660    1.000
    H29      H        0.80140    0.94390    0.54420    1.000
    H30      H        0.79160    0.84700    0.61110    1.000
    H31      H        0.73200    0.90270    0.73830    1.000
    H32      H        0.74290    0.99940    0.66930    1.000
    H33      H        0.71730    0.66510    0.74880    1.000
    H34      H        0.72970    0.76270    0.67770    1.000
    H35      H        0.77860    0.81570    0.79360    1.000
    H36      H        0.76540    0.71710    0.86380    1.000
    H37      H        0.63330    0.94080    0.57800    1.000
    H38      H        0.61800    0.83490    0.62970    1.000
    H39      H        0.55590    0.86300    0.77280    1.000
    H40      H        0.56870    0.96240    0.72530    1.000
    H41      H        0.55390    0.64690    0.72600    1.000
    H42      H        0.56810    0.74790    0.67390    1.000
    H43      H        0.59420    0.76910    0.81820    1.000
    H44      H        0.58700    0.66620    0.86830    1.000
    H45      H        0.77240    0.27570    0.59910    1.000
    H46      H        0.76370    0.32310    0.66090    1.000
    H47      H        0.58840    0.29090    0.69590    1.000
    H48      H        0.59860    0.24880    0.62730    1.000
    H49      H        0.57620    0.38170    0.81230    1.000
    H50      H        0.58350    0.33490    0.74980    1.000
    H51      H        0.75410    0.36390    0.72060    1.000
    H52      H        0.74900    0.40580    0.78460    1.000
    H53      H        0.77030    0.24570    0.32120    1.000
    H54      H        0.75120    0.30620    0.23040    1.000
    H55      H        0.57780    0.29800    0.28580    1.000
    H56      H        0.59650    0.23820    0.38120    1.000
    H57      H        0.71990    0.44020    0.06450    1.000
    H58      H        0.73150    0.39520    0.16120    1.000
    H59      H        0.56640    0.32060    0.19640    1.000
    H60      H        0.55370    0.38240    0.10040    1.000
    C1       C        0.08850    0.23430    0.43150    1.000
    C2       C        0.33190    0.24320    0.46670    1.000
    C3       C        0.14820    0.24020    0.44570    1.000
    C4       C        0.16920    0.20230    0.49420    1.000
    C5       C        0.22920    0.20390    0.50210    1.000
    C6       C        0.27070    0.24470    0.45580    1.000
    C7       C        0.24800    0.28760    0.40580    1.000
    C8       C        0.19080    0.28390    0.40000    1.000
    C9       C        0.88290    0.20470    0.52920    1.000
    C10      C        0.94130    0.21720    0.52570    1.000
    C11      C        0.98210    0.21360    0.47990    1.000
    C12      C        0.96140    0.19490    0.44050    1.000
    C13      C        0.90000    0.18260    0.45030    1.000
    C14      C        0.48950    0.11800    0.55220    1.000
    C15      C        0.43020    0.13060    0.53920    1.000
    C16      C        0.41690    0.18950    0.50360    1.000
    C17      C        0.45800    0.23240    0.48710    1.000
    C18      C        0.51750    0.21640    0.49960    1.000
    C19      C        0.00010    0.42180    0.97690    1.000
    C20      C        0.25730    0.40730    0.93450    1.000
    C21      C        0.06680    0.41400    0.97200    1.000
    C22      C        0.09930    0.39230    0.01790    1.000
    C23      C        0.16120    0.39060    0.00690    1.000
    C24      C        0.19060    0.41050    0.95000    1.000
    C25      C        0.15810    0.43220    0.90400    1.000
    C26      C        0.09620    0.43400    0.91500    1.000
    C27      C        0.83170    0.45070    0.88210    1.000
    C28      C        0.89540    0.43710    0.88830    1.000
    C29      C        0.91160    0.43950    0.93770    1.000
    C30      C        0.87720    0.45970    0.96890    1.000
    C31      C        0.81840    0.47500    0.95590    1.000
    C32      C        0.44600    0.44020    0.89380    1.000
    C33      C        0.38540    0.43080    0.89950    1.000
    C34      C        0.35620    0.41800    0.95570    1.000
    C35      C        0.38550    0.41570    0.00020    1.000
    C36      C        0.44630    0.42810    0.98640    1.000
    C37      C        0.77650    0.04320    0.55660    1.000
    C38      C        0.77020    0.98310    0.59870    1.000
    C39      C        0.78660    0.93620    0.58290    1.000
    C40      C        0.78140    0.87800    0.62360    1.000
    C41      C        0.76160    0.86250    0.68290    1.000
    C42      C        0.74610    0.90980    0.69960    1.000
    C43      C        0.75200    0.96800    0.65720    1.000
    C44      C        0.73470    0.61970    0.85880    1.000
    C45      C        0.74230    0.68290    0.81080    1.000
    C46      C        0.73060    0.69580    0.75790    1.000
    C47      C        0.73750    0.75510    0.71490    1.000
    C48      C        0.75550    0.80100    0.72700    1.000
    C49      C        0.76610    0.78550    0.78340    1.000
    C50      C        0.75880    0.72600    0.82600    1.000
    C51      C        0.60760    0.02780    0.61470    1.000
    C52      C        0.59980    0.96250    0.64670    1.000
    C53      C        0.61700    0.92470    0.61720    1.000
    C54      C        0.60880    0.86050    0.64900    1.000
    C55      C        0.58830    0.83770    0.70550    1.000
    C56      C        0.57180    0.87870    0.73350    1.000
    C57      C        0.57850    0.93750    0.70530    1.000
    C58      C        0.56470    0.58010    0.83700    1.000
    C59      C        0.57060    0.64550    0.80110    1.000
    C60      C        0.56370    0.67120    0.74430    1.000
    C61      C        0.57080    0.73210    0.71340    1.000
    C62      C        0.58200    0.77200    0.73920    1.000
    C63      C        0.58730    0.74480    0.79900    1.000
    C64      C        0.58250    0.68310    0.82920    1.000
    C65      C        0.69040    0.22260    0.57110    1.000
    C66      C        0.68560    0.25760    0.60670    1.000
    C67      C        0.73470    0.27980    0.61750    1.000
    C68      C        0.72920    0.30810    0.65510    1.000
    C69      C        0.67570    0.31560    0.68490    1.000
    C70      C        0.62590    0.29010    0.67540    1.000
    C71      C        0.63260    0.26320    0.63480    1.000
    C72      C        0.65090    0.42120    0.85250    1.000
    C73      C        0.66010    0.39660    0.80890    1.000
    C74      C        0.61420    0.37690    0.79490    1.000
    C75      C        0.61840    0.34910    0.75570    1.000
    C76      C        0.67000    0.34200    0.72640    1.000
    C77      C        0.71630    0.36580    0.74020    1.000
    C78      C        0.71410    0.39150    0.77860    1.000
    C79      C        0.69880    0.19850    0.42160    1.000
    C80      C        0.68630    0.23700    0.36250    1.000
    C81      C        0.73130    0.25700    0.31590    1.000
    C82      C        0.71940    0.29390    0.26090    1.000
    C83      C        0.66290    0.31330    0.24880    1.000
    C84      C        0.61690    0.28990    0.29290    1.000
    C85      C        0.62840    0.25240    0.35090    1.000
    C86      C        0.62730    0.44510    0.01120    1.000
    C87      C        0.63600    0.41270    0.07390    1.000
    C88      C        0.68850    0.41710    0.09180    1.000
    C89      C        0.69670    0.38840    0.14920    1.000
    C90      C        0.65180    0.34920    0.18870    1.000
    C91      C        0.59760    0.34570    0.17060    1.000
    C92      C        0.59080    0.38130    0.11200    1.000
    N1       N        0.04250    0.22670    0.47840    1.000
    N2       N        0.86010    0.18810    0.49350    1.000
    N3       N        0.35770    0.19940    0.49560    1.000
    N4       N        0.53180    0.16020    0.52940    1.000
    N5       N        0.97080    0.41980    0.94020    1.000
    N6       N        0.79790    0.46850    0.91600    1.000
    N7       N        0.29350    0.40710    0.97020    1.000
    N8       N        0.47630    0.44520    0.93440    1.000
    O1       O        0.07890    0.23990    0.38450    1.000
    O2       O        0.36150    0.29330    0.43460    1.000
    O3       O        0.98080    0.42840    0.02480    1.000
    O4       O        0.27760    0.41420    0.88150    1.000
    O5       O        0.75410    0.08650    0.57220    1.000
    O6       O        0.79930    0.05870    0.50480    1.000
    O7       O        0.72050    0.57910    0.83940    1.000
    O8       O        0.74360    0.60500    0.90950    1.000
    O9       O        0.62210    0.04960    0.55850    1.000
    O10      O        0.59580    0.06310    0.64060    1.000
    O11      O        0.57590    0.55730    0.88850    1.000
    O12      O        0.55020    0.54550    0.81220    1.000
    O13      O        0.74130    0.21790    0.54420    1.000
    O14      O        0.64390    0.19340    0.57220    1.000
    O15      O        0.69610    0.44990    0.85470    1.000
    O16      O        0.60200    0.42180    0.88090    1.000
    O17      O        0.75130    0.19650    0.43040    1.000
    O18      O        0.65140    0.17630    0.45720    1.000
    O19      O        0.67490    0.47010    0.97690    1.000
    O20      O        0.57900    0.44030    0.99570    1.000
    Zn5      Zn       0.88043    0.15109    0.71063    1.000
    Zn6      Zn       0.02642    0.18741    0.67591    1.000
    Zn7      Zn       0.11957    0.84891    0.28937    1.000
    Zn8      Zn       0.97358    0.81259    0.32409    1.000
    H61      H        0.60110    0.09100    0.70900    1.000
    H62      H        0.29390    0.16670    0.73580    1.000
    H63      H        0.52310    0.08250    0.69070    1.000
    H64      H        0.42900    0.08500    0.66470    1.000
    H65      H        0.36570    0.16280    0.77490    1.000
    H66      H        0.45980    0.16030    0.80080    1.000
    H67      H        0.79450    0.10590    0.66030    1.000
    H68      H        0.69740    0.08860    0.66530    1.000
    H69      H        0.66710    0.14940    0.79480    1.000
    H70      H        0.76790    0.16380    0.78490    1.000
    H71      H        0.13380    0.11850    0.64200    1.000
    H72      H        0.23500    0.11740    0.64890    1.000
    H73      H        0.19880    0.17560    0.77750    1.000
    H74      H        0.10380    0.19990    0.75050    1.000
    H75      H        0.90740    0.31990    0.55980    1.000
    H76      H        0.91870    0.41980    0.49440    1.000
    H77      H        0.88460    0.46800    0.63190    1.000
    H78      H        0.87600    0.36630    0.69390    1.000
    H79      H        0.89940    0.65570    0.51530    1.000
    H80      H        0.89190    0.55550    0.57780    1.000
    H81      H        0.93890    0.51080    0.44520    1.000
    H82      H        0.95940    0.61230    0.38350    1.000
    H83      H        0.88800    0.05100    0.60060    1.000
    H84      H        0.90660    0.00460    0.53570    1.000
    H85      H        0.08000    0.03170    0.52130    1.000
    H86      H        0.06180    0.08380    0.58070    1.000
    H87      H        0.88950    0.04350    0.88960    1.000
    H88      H        0.90970    0.99270    0.98390    1.000
    H89      H        0.06490    0.07190    0.94290    1.000
    H90      H        0.05140    0.11640    0.84410    1.000
    H91      H        0.39890    0.90900    0.29100    1.000
    H92      H        0.70610    0.83330    0.26420    1.000
    H93      H        0.47690    0.91750    0.30930    1.000
    H94      H        0.57100    0.91500    0.33530    1.000
    H95      H        0.63430    0.83720    0.22510    1.000
    H96      H        0.54020    0.83970    0.19920    1.000
    H97      H        0.20550    0.89410    0.33970    1.000
    H98      H        0.30260    0.91140    0.33470    1.000
    H99      H        0.33290    0.85060    0.20520    1.000
    H100     H        0.23210    0.83620    0.21510    1.000
    H101     H        0.86620    0.88150    0.35800    1.000
    H102     H        0.76500    0.88260    0.35110    1.000
    H103     H        0.80120    0.82440    0.22250    1.000
    H104     H        0.89620    0.80010    0.24950    1.000
    H105     H        0.09260    0.68010    0.44020    1.000
    H106     H        0.08130    0.58020    0.50560    1.000
    H107     H        0.11540    0.53200    0.36810    1.000
    H108     H        0.12400    0.63370    0.30610    1.000
    H109     H        0.10060    0.34430    0.48470    1.000
    H110     H        0.10810    0.44450    0.42220    1.000
    H111     H        0.06110    0.48920    0.55480    1.000
    H112     H        0.04060    0.38770    0.61650    1.000
    H113     H        0.11200    0.94900    0.39940    1.000
    H114     H        0.09340    0.99540    0.46430    1.000
    H115     H        0.92000    0.96830    0.47870    1.000
    H116     H        0.93820    0.91620    0.41930    1.000
    H117     H        0.11050    0.95650    0.11040    1.000
    H118     H        0.09030    0.00730    0.01610    1.000
    H119     H        0.93510    0.92810    0.05710    1.000
    H120     H        0.94860    0.88360    0.15590    1.000
    C93      C        0.56210    0.12460    0.76290    1.000
    C94      C        0.32670    0.11090    0.70760    1.000
    C95      C        0.50080    0.12110    0.74830    1.000
    C96      C        0.49150    0.09860    0.70760    1.000
    C97      C        0.43520    0.10010    0.69200    1.000
    C98      C        0.38810    0.12410    0.71730    1.000
    C99      C        0.39730    0.14670    0.75800    1.000
    C100     C        0.45360    0.14520    0.77360    1.000
    C101     C        0.76810    0.11440    0.68790    1.000
    C102     C        0.71060    0.10460    0.68940    1.000
    C103     C        0.67000    0.12000    0.73030    1.000
    C104     C        0.69260    0.14080    0.76670    1.000
    C105     C        0.75300    0.14860    0.76100    1.000
    C106     C        0.14820    0.13570    0.66470    1.000
    C107     C        0.20790    0.13050    0.67260    1.000
    C108     C        0.22690    0.14380    0.71320    1.000
    C109     C        0.18740    0.16830    0.74710    1.000
    C110     C        0.13040    0.18070    0.73190    1.000
    C111     C        0.88760    0.26870    0.67200    1.000
    C112     C        0.89320    0.33290    0.63310    1.000
    C113     C        0.90410    0.35000    0.57420    1.000
    C114     C        0.91040    0.40990    0.53430    1.000
    C115     C        0.90350    0.45690    0.55780    1.000
    C116     C        0.89030    0.43900    0.61620    1.000
    C117     C        0.88510    0.37710    0.65400    1.000
    C118     C        0.94850    0.70600    0.40490    1.000
    C119     C        0.93500    0.64200    0.44480    1.000
    C120     C        0.91090    0.62610    0.50130    1.000
    C121     C        0.90340    0.56540    0.53820    1.000
    C122     C        0.91200    0.51960    0.51940    1.000
    C123     C        0.93250    0.53960    0.46120    1.000
    C124     C        0.94480    0.60140    0.42280    1.000
    C125     C        0.96190    0.10020    0.64300    1.000
    C126     C        0.97370    0.06750    0.60320    1.000
    C127     C        0.92720    0.04670    0.58570    1.000
    C128     C        0.93860    0.01930    0.54570    1.000
    C129     C        0.99400    0.01370    0.52160    1.000
    C130     C        0.04100    0.03610    0.53660    1.000
    C131     C        0.03000    0.06520    0.57450    1.000
    C132     C        0.95400    0.12100    0.79750    1.000
    C133     C        0.96770    0.08710    0.85640    1.000
    C134     C        0.92670    0.04870    0.89830    1.000
    C135     C        0.93980    0.01640    0.95520    1.000
    C136     C        0.99390    0.01880    0.96920    1.000
    C137     C        0.03140    0.06150    0.93140    1.000
    C138     C        0.02100    0.09240    0.87210    1.000
    C139     C        0.43790    0.87540    0.23710    1.000
    C140     C        0.67330    0.88910    0.29240    1.000
    C141     C        0.49920    0.87890    0.25170    1.000
    C142     C        0.50850    0.90140    0.29240    1.000
    C143     C        0.56480    0.89990    0.30800    1.000
    C144     C        0.61190    0.87590    0.28270    1.000
    C145     C        0.60270    0.85330    0.24200    1.000
    C146     C        0.54640    0.85480    0.22640    1.000
    C147     C        0.23190    0.88560    0.31210    1.000
    C148     C        0.28940    0.89540    0.31060    1.000
    C149     C        0.33000    0.88000    0.26970    1.000
    C150     C        0.30740    0.85920    0.23330    1.000
    C151     C        0.24700    0.85140    0.23900    1.000
    C152     C        0.85180    0.86430    0.33530    1.000
    C153     C        0.79210    0.86950    0.32740    1.000
    C154     C        0.77310    0.85620    0.28680    1.000
    C155     C        0.81260    0.83170    0.25290    1.000
    C156     C        0.86960    0.81930    0.26810    1.000
    C157     C        0.11240    0.73130    0.32800    1.000
    C158     C        0.10680    0.66710    0.36690    1.000
    C159     C        0.09590    0.65000    0.42580    1.000
    C160     C        0.08960    0.59010    0.46570    1.000
    C161     C        0.09650    0.54310    0.44220    1.000
    C162     C        0.10970    0.56100    0.38380    1.000
    C163     C        0.11490    0.62290    0.34600    1.000
    C164     C        0.05150    0.29400    0.59510    1.000
    C165     C        0.06500    0.35800    0.55520    1.000
    C166     C        0.08910    0.37390    0.49870    1.000
    C167     C        0.09660    0.43460    0.46180    1.000
    C168     C        0.08800    0.48040    0.48060    1.000
    C169     C        0.06750    0.46040    0.53880    1.000
    C170     C        0.05520    0.39860    0.57720    1.000
    C171     C        0.03810    0.89980    0.35700    1.000
    C172     C        0.02630    0.93250    0.39680    1.000
    C173     C        0.07280    0.95330    0.41430    1.000
    C174     C        0.06140    0.98070    0.45430    1.000
    C175     C        0.00600    0.98630    0.47840    1.000
    C176     C        0.95900    0.96390    0.46340    1.000
    C177     C        0.97000    0.93480    0.42550    1.000
    C178     C        0.04600    0.87900    0.20250    1.000
    C179     C        0.03230    0.91290    0.14360    1.000
    C180     C        0.07330    0.95130    0.10170    1.000
    C181     C        0.06020    0.98360    0.04480    1.000
    C182     C        0.00610    0.98120    0.03080    1.000
    C183     C        0.96860    0.93850    0.06860    1.000
    C184     C        0.97900    0.90760    0.12790    1.000
    N9       N        0.60930    0.10880    0.73050    1.000
    N10      N        0.79220    0.13500    0.72160    1.000
    N11      N        0.28400    0.14290    0.72050    1.000
    N12      N        0.11260    0.16500    0.68960    1.000
    N13      N        0.39070    0.89120    0.26950    1.000
    N14      N        0.20780    0.86500    0.27840    1.000
    N15      N        0.71600    0.85710    0.27950    1.000
    N16      N        0.88740    0.83500    0.31040    1.000
    O21      O        0.56760    0.14890    0.79920    1.000
    O22      O        0.31450    0.07040    0.68990    1.000
    O23      O        0.90830    0.22950    0.65170    1.000
    O24      O        0.86380    0.25090    0.72350    1.000
    O25      O        0.94220    0.74860    0.42420    1.000
    O26      O        0.96540    0.72140    0.35090    1.000
    O27      O        0.91030    0.10280    0.66560    1.000
    O28      O        0.00550    0.12530    0.65050    1.000
    O29      O        0.90460    0.11110    0.78620    1.000
    O30      O        0.99380    0.15780    0.76020    1.000
    O31      O        0.43240    0.85110    0.20080    1.000
    O32      O        0.68550    0.92960    0.31010    1.000
    O33      O        0.09170    0.77050    0.34830    1.000
    O34      O        0.13620    0.74910    0.27650    1.000
    O35      O        0.05780    0.25140    0.57580    1.000
    O36      O        0.03460    0.27860    0.64910    1.000
    O37      O        0.08970    0.89720    0.33440    1.000
    O38      O        0.99450    0.87470    0.34950    1.000
    O39      O        0.09540    0.88890    0.21380    1.000
    O40      O        0.00620    0.84220    0.23980    1.000
    Zn9      Zn       0.22584    0.83647    0.49362    1.000
    Zn10     Zn       0.38063    0.86201    0.45902    1.000
    Zn11     Zn       0.28555    0.50152    0.10257    1.000
    Zn12     Zn       0.43870    0.52892    0.08272    1.000
    H121     H        0.94790    0.76960    0.49170    1.000
    H122     H        0.66540    0.83180    0.48480    1.000
    H123     H        0.01270    0.59420    0.08470    1.000
    H124     H        0.72220    0.60020    0.99440    1.000
    H125     H        0.85710    0.82610    0.47650    1.000
    H126     H        0.75850    0.82120    0.46310    1.000
    H127     H        0.72680    0.68210    0.62270    1.000
    H128     H        0.82230    0.69010    0.63410    1.000
    H129     H        0.14330    0.79180    0.44030    1.000
    H130     H        0.04590    0.77190    0.44650    1.000
    H131     H        0.01330    0.80910    0.59030    1.000
    H132     H        0.11480    0.83040    0.57510    1.000
    H133     H        0.50180    0.92060    0.42290    1.000
    H134     H        0.59930    0.89990    0.44580    1.000
    H135     H        0.55120    0.72740    0.53230    1.000
    H136     H        0.45300    0.75330    0.51380    1.000
    H137     H        0.92030    0.62100    0.94390    1.000
    H138     H        0.81710    0.62390    0.96230    1.000
    H139     H        0.82220    0.55440    0.13410    1.000
    H140     H        0.92550    0.55150    0.11580    1.000
    H141     H        0.18360    0.55420    0.14780    1.000
    H142     H        0.07810    0.57210    0.13870    1.000
    H143     H        0.11030    0.53530    0.00010    1.000
    H144     H        0.20630    0.50910    0.02110    1.000
    H145     H        0.53140    0.55640    0.14130    1.000
    H146     H        0.63400    0.56720    0.13090    1.000
    H147     H        0.63470    0.59380    0.96230    1.000
    H148     H        0.53290    0.57620    0.98340    1.000
    H149     H        0.19860    0.05610    0.45580    1.000
    H150     H        0.20840    0.15300    0.38890    1.000
    H151     H        0.26800    0.09730    0.26170    1.000
    H152     H        0.25710    0.00060    0.33070    1.000
    H153     H        0.28270    0.33490    0.25120    1.000
    H154     H        0.27030    0.23730    0.32230    1.000
    H155     H        0.22140    0.18430    0.20640    1.000
    H156     H        0.23460    0.28290    0.13620    1.000
    H157     H        0.36670    0.05920    0.42200    1.000
    H158     H        0.38200    0.16510    0.37030    1.000
    H159     H        0.44410    0.13700    0.22720    1.000
    H160     H        0.43130    0.03760    0.27470    1.000
    H161     H        0.44610    0.35310    0.27400    1.000
    H162     H        0.43190    0.25210    0.32610    1.000
    H163     H        0.40580    0.23090    0.18180    1.000
    H164     H        0.41300    0.33380    0.13170    1.000
    H165     H        0.22760    0.72430    0.40090    1.000
    H166     H        0.23630    0.67690    0.33910    1.000
    H167     H        0.41160    0.70910    0.30410    1.000
    H168     H        0.40140    0.75120    0.37270    1.000
    H169     H        0.42380    0.61830    0.18770    1.000
    H170     H        0.41650    0.66510    0.25020    1.000
    H171     H        0.24590    0.63610    0.27940    1.000
    H172     H        0.25100    0.59420    0.21540    1.000
    H173     H        0.22970    0.75430    0.67880    1.000
    H174     H        0.24880    0.69380    0.76960    1.000
    H175     H        0.42220    0.70200    0.71420    1.000
    H176     H        0.40350    0.76180    0.61880    1.000
    H177     H        0.28010    0.55980    0.93550    1.000
    H178     H        0.26850    0.60480    0.83880    1.000
    H179     H        0.43360    0.67940    0.80360    1.000
    H180     H        0.44630    0.61760    0.89960    1.000
    C185     C        0.91150    0.76570    0.56850    1.000
    C186     C        0.66810    0.75680    0.53330    1.000
    C187     C        0.85180    0.75980    0.55430    1.000
    C188     C        0.83080    0.79770    0.50580    1.000
    C189     C        0.77080    0.79610    0.49790    1.000
    C190     C        0.72930    0.75530    0.54420    1.000
    C191     C        0.75200    0.71240    0.59420    1.000
    C192     C        0.80920    0.71610    0.60000    1.000
    C193     C        0.11710    0.79530    0.47080    1.000
    C194     C        0.05870    0.78280    0.47430    1.000
    C195     C        0.01790    0.78640    0.52010    1.000
    C196     C        0.03860    0.80510    0.55950    1.000
    C197     C        0.10000    0.81740    0.54970    1.000
    C198     C        0.51050    0.88200    0.44780    1.000
    C199     C        0.56980    0.86940    0.46080    1.000
    C200     C        0.58310    0.81050    0.49640    1.000
    C201     C        0.54200    0.76760    0.51290    1.000
    C202     C        0.48250    0.78360    0.50040    1.000
    C203     C        0.99990    0.57820    0.02310    1.000
    C204     C        0.74270    0.59270    0.06550    1.000
    C205     C        0.93320    0.58600    0.02800    1.000
    C206     C        0.90070    0.60770    0.98210    1.000
    C207     C        0.83880    0.60940    0.99310    1.000
    C208     C        0.80940    0.58950    0.05000    1.000
    C209     C        0.84190    0.56780    0.09600    1.000
    C210     C        0.90380    0.56600    0.08500    1.000
    C211     C        0.16830    0.54930    0.11790    1.000
    C212     C        0.10460    0.56290    0.11170    1.000
    C213     C        0.08840    0.56050    0.06230    1.000
    C214     C        0.12280    0.54030    0.03110    1.000
    C215     C        0.18160    0.52500    0.04410    1.000
    C216     C        0.55400    0.55980    0.10620    1.000
    C217     C        0.61460    0.56920    0.10050    1.000
    C218     C        0.64380    0.58200    0.04430    1.000
    C219     C        0.61450    0.58430    0.99980    1.000
    C220     C        0.55370    0.57190    0.01360    1.000
    C221     C        0.22350    0.95680    0.44340    1.000
    C222     C        0.22980    0.01690    0.40130    1.000
    C223     C        0.21340    0.06380    0.41710    1.000
    C224     C        0.21860    0.12200    0.37640    1.000
    C225     C        0.23840    0.13750    0.31710    1.000
    C226     C        0.25390    0.09020    0.30040    1.000
    C227     C        0.24800    0.03200    0.34280    1.000
    C228     C        0.26530    0.38030    0.14120    1.000
    C229     C        0.25770    0.31710    0.18920    1.000
    C230     C        0.26940    0.30420    0.24210    1.000
    C231     C        0.26250    0.24490    0.28510    1.000
    C232     C        0.24450    0.19900    0.27300    1.000
    C233     C        0.23390    0.21450    0.21660    1.000
    C234     C        0.24120    0.27400    0.17400    1.000
    C235     C        0.39240    0.97220    0.38530    1.000
    C236     C        0.40020    0.03750    0.35330    1.000
    C237     C        0.38300    0.07530    0.38280    1.000
    C238     C        0.39120    0.13950    0.35100    1.000
    C239     C        0.41170    0.16230    0.29450    1.000
    C240     C        0.42820    0.12130    0.26650    1.000
    C241     C        0.42150    0.06250    0.29470    1.000
    C242     C        0.43530    0.41990    0.16300    1.000
    C243     C        0.42940    0.35450    0.19890    1.000
    C244     C        0.43630    0.32880    0.25570    1.000
    C245     C        0.42920    0.26790    0.28660    1.000
    C246     C        0.41800    0.22800    0.26080    1.000
    C247     C        0.41270    0.25520    0.20100    1.000
    C248     C        0.41750    0.31690    0.17080    1.000
    C249     C        0.30960    0.77740    0.42890    1.000
    C250     C        0.31440    0.74240    0.39330    1.000
    C251     C        0.26530    0.72020    0.38250    1.000
    C252     C        0.27080    0.69190    0.34490    1.000
    C253     C        0.32430    0.68440    0.31510    1.000
    C254     C        0.37410    0.70990    0.32460    1.000
    C255     C        0.36740    0.73680    0.36520    1.000
    C256     C        0.34910    0.57880    0.14750    1.000
    C257     C        0.33990    0.60340    0.19110    1.000
    C258     C        0.38580    0.62310    0.20510    1.000
    C259     C        0.38160    0.65090    0.24430    1.000
    C260     C        0.33000    0.65800    0.27360    1.000
    C261     C        0.28370    0.63420    0.25980    1.000
    C262     C        0.28590    0.60850    0.22140    1.000
    C263     C        0.30120    0.80150    0.57840    1.000
    C264     C        0.31370    0.76300    0.63750    1.000
    C265     C        0.26870    0.74300    0.68410    1.000
    C266     C        0.28060    0.70610    0.73910    1.000
    C267     C        0.33710    0.68670    0.75120    1.000
    C268     C        0.38310    0.71010    0.70710    1.000
    C269     C        0.37160    0.74760    0.64910    1.000
    C270     C        0.37270    0.55490    0.98880    1.000
    C271     C        0.36400    0.58730    0.92610    1.000
    C272     C        0.31150    0.58290    0.90820    1.000
    C273     C        0.30330    0.61160    0.85080    1.000
    C274     C        0.34820    0.65080    0.81130    1.000
    C275     C        0.40240    0.65430    0.82940    1.000
    C276     C        0.40920    0.61870    0.88800    1.000
    N17      N        0.95750    0.77330    0.52160    1.000
    N18      N        0.13990    0.81190    0.50650    1.000
    N19      N        0.64230    0.80060    0.50440    1.000
    N20      N        0.46820    0.83980    0.47060    1.000
    N21      N        0.02920    0.58020    0.05980    1.000
    N22      N        0.20210    0.53150    0.08400    1.000
    N23      N        0.70650    0.59290    0.02980    1.000
    N24      N        0.52370    0.55480    0.06560    1.000
    O41      O        0.92110    0.76010    0.61550    1.000
    O42      O        0.63850    0.70670    0.56540    1.000
    O43      O        0.01920    0.57160    0.97520    1.000
    O44      O        0.72240    0.58580    0.11850    1.000
    O45      O        0.24590    0.91350    0.42780    1.000
    O46      O        0.20070    0.94130    0.49520    1.000
    O47      O        0.27950    0.42090    0.16060    1.000
    O48      O        0.25640    0.39500    0.09050    1.000
    O49      O        0.37790    0.95040    0.44150    1.000
    O50      O        0.40420    0.93690    0.35940    1.000
    O51      O        0.42410    0.44270    0.11150    1.000
    O52      O        0.44980    0.45450    0.18780    1.000
    O53      O        0.25870    0.78210    0.45580    1.000
    O54      O        0.35610    0.80660    0.42780    1.000
    O55      O        0.30390    0.55010    0.14530    1.000
    O56      O        0.39800    0.57820    0.11910    1.000
    O57      O        0.24870    0.80350    0.56960    1.000
    O58      O        0.34860    0.82370    0.54280    1.000
    O59      O        0.32510    0.52990    0.02310    1.000
    O60      O        0.42100    0.55970    0.00430    1.000
