# CIF file generated by openbabel 3.1.0, see https://openbabel.org
data_I
_chemical_name_common 'image0'
_cell_length_a 11.1597
_cell_length_b 22.075
_cell_length_c 17.434
_cell_angle_alpha 90
_cell_angle_beta 99.424
_cell_angle_gamma 90
_space_group_name_H-M_alt 'P 1'
_space_group_name_Hall 'P 1'
loop_
    _symmetry_equiv_pos_as_xyz
    x,y,z
loop_
    _atom_site_label
    _atom_site_type_symbol
    _atom_site_fract_x
    _atom_site_fract_y
    _atom_site_fract_z
    _atom_site_occupancy
    Cd1      Cd       0.36763    0.44261    0.47128    1.000
    O1       O        0.34600    0.54350    0.46020    1.000
    O2       O        0.82300    0.92834    0.12010    1.000
    O3       O        0.49700    0.60390    0.44460    1.000
    O4       O        0.72140    0.84997    0.06370    1.000
    N1       N        0.93220    0.50250    0.74110    1.000
    N2       N        0.05610    0.44180    0.81540    1.000
    H1       H        0.11590    0.41850    0.83350    1.000
    N3       N        0.46360    0.44690    0.36330    1.000
    N4       N        0.72510    0.43560    0.14660    1.000
    H2       H        0.76310    0.40680    0.17360    1.000
    N5       N        0.58980    0.51000    0.10850    1.000
    N6       N        0.25620    0.45350    0.57210    1.000
    N7       N        0.88230    0.49540    0.80670    1.000
    N8       N        0.66660    0.50330    0.05600    1.000
    C1       C        0.57110    0.46000    0.23130    1.000
    C2       C        0.41250    0.48130    0.30310    1.000
    H3       H        0.33980    0.50090    0.30650    1.000
    N9       N        0.03270    0.38580    0.04500    1.000
    C3       C        0.62810    0.46820    0.16170    1.000
    C4       C        0.11140    0.46490    0.68680    1.000
    C5       C        0.20900    0.42500    0.69610    1.000
    H4       H        0.22720    0.40170    0.74090    1.000
    C6       C        0.03560    0.46980    0.74780    1.000
    C7       C        0.46270    0.48890    0.23710    1.000
    H5       H        0.42450    0.51310    0.19670    1.000
    C8       C        0.94710    0.43920    0.92830    1.000
    C9       C        0.08820    0.49840    0.61850    1.000
    H6       H        0.02290    0.52510    0.60990    1.000
    C10      C        0.96050    0.45830    0.84950    1.000
    C11      C        0.56760    0.41900    0.35780    1.000
    H7       H        0.60420    0.39520    0.39910    1.000
    C12      C        0.62340    0.42410    0.29260    1.000
    H8       H        0.69540    0.40360    0.29020    1.000
    C13      C        0.16320    0.49170    0.56380    1.000
    H9       H        0.14790    0.51500    0.51880    1.000
    C14      C        0.84400    0.43940    0.03850    1.000
    C15      C        0.03570    0.40370    0.97180    1.000
    H10      H        0.10130    0.39160    0.94880    1.000
    C16      C        0.84880    0.45730    0.96300    1.000
    H11      H        0.78730    0.48110    0.93580    1.000
    C17      C        0.90030    0.82950    0.15250    1.000
    C18      C        0.74640    0.45890    0.08060    1.000
    C19      C        0.27850    0.42060    0.63740    1.000
    H12      H        0.34350    0.39370    0.64370    1.000
    C20      C        0.38790    0.58620    0.43270    1.000
    C21      C        0.93750    0.40400    0.07670    1.000
    H13      H        0.93400    0.39220    0.12750    1.000
    C22      C        0.14880    0.70400    0.27920    1.000
    C23      C        0.81090    0.87150    0.10980    1.000
    C24      C        0.08880    0.80850    0.23700    1.000
    H14      H        0.15970    0.82280    0.26710    1.000
    C25      C        0.06430    0.74650    0.23320    1.000
    C26      C        0.35030    0.67430    0.33670    1.000
    H15      H        0.43380    0.68060    0.34280    1.000
    C27      C        0.00620    0.84890    0.19560    1.000
    H16      H        0.02400    0.89010    0.19740    1.000
    C28      C        0.95710    0.72580    0.18780    1.000
    H17      H        0.94010    0.68450    0.18440    1.000
    C29      C        0.27320    0.71220    0.28840    1.000
    H18      H        0.30520    0.74340    0.26200    1.000
    C30      C        0.30510    0.62700    0.37640    1.000
    C31      C        0.10360    0.65560    0.31630    1.000
    H19      H        0.02040    0.64840    0.30850    1.000
    C32      C        0.18180    0.61740    0.36520    1.000
    H20      H        0.15030    0.58530    0.39030    1.000
    C33      C        0.87650    0.76680    0.14800    1.000
    H21      H        0.80540    0.75290    0.11780    1.000
    Cd2      Cd       0.63237    0.94261    0.02872    1.000
    O5       O        0.65400    0.04350    0.03980    1.000
    O6       O        0.17700    0.42834    0.37990    1.000
    O7       O        0.50300    0.10390    0.05540    1.000
    O8       O        0.27860    0.34997    0.43630    1.000
    N10      N        0.06780    0.00250    0.75890    1.000
    N11      N        0.94390    0.94180    0.68460    1.000
    H22      H        0.88410    0.91850    0.66650    1.000
    N12      N        0.53640    0.94690    0.13670    1.000
    N13      N        0.27490    0.93560    0.35340    1.000
    H23      H        0.23690    0.90680    0.32640    1.000
    N14      N        0.41020    0.01000    0.39150    1.000
    N15      N        0.74380    0.95350    0.92790    1.000
    N16      N        0.11770    0.99540    0.69330    1.000
    N17      N        0.33340    0.00330    0.44400    1.000
    C34      C        0.42890    0.96000    0.26870    1.000
    C35      C        0.58750    0.98130    0.19690    1.000
    H24      H        0.66020    0.00090    0.19350    1.000
    N18      N        0.96730    0.88580    0.45500    1.000
    C36      C        0.37190    0.96820    0.33830    1.000
    C37      C        0.88860    0.96490    0.81320    1.000
    C38      C        0.79100    0.92500    0.80390    1.000
    H25      H        0.77280    0.90170    0.75910    1.000
    C39      C        0.96440    0.96980    0.75220    1.000
    C40      C        0.53730    0.98890    0.26290    1.000
    H26      H        0.57550    0.01310    0.30330    1.000
    C41      C        0.05290    0.93920    0.57170    1.000
    C42      C        0.91180    0.99840    0.88150    1.000
    H27      H        0.97710    0.02510    0.89010    1.000
    C43      C        0.03950    0.95830    0.65050    1.000
    C44      C        0.43240    0.91900    0.14220    1.000
    H28      H        0.39580    0.89520    0.10090    1.000
    C45      C        0.37660    0.92410    0.20740    1.000
    H29      H        0.30460    0.90360    0.20980    1.000
    C46      C        0.83680    0.99170    0.93620    1.000
    H30      H        0.85210    0.01500    0.98120    1.000
    C47      C        0.15600    0.93940    0.46150    1.000
    C48      C        0.96430    0.90370    0.52820    1.000
    H31      H        0.89870    0.89160    0.55120    1.000
    C49      C        0.15120    0.95730    0.53700    1.000
    H32      H        0.21270    0.98110    0.56420    1.000
    C50      C        0.09970    0.32950    0.34750    1.000
    C51      C        0.25360    0.95890    0.41940    1.000
    C52      C        0.72150    0.92060    0.86260    1.000
    H33      H        0.65650    0.89370    0.85630    1.000
    C53      C        0.61210    0.08620    0.06730    1.000
    C54      C        0.06250    0.90400    0.42330    1.000
    H34      H        0.06600    0.89220    0.37250    1.000
    C55      C        0.85120    0.20400    0.22080    1.000
    C56      C        0.18910    0.37150    0.39020    1.000
    C57      C        0.91120    0.30850    0.26300    1.000
    H35      H        0.84030    0.32280    0.23290    1.000
    C58      C        0.93570    0.24650    0.26680    1.000
    C59      C        0.64970    0.17430    0.16330    1.000
    H36      H        0.56620    0.18060    0.15720    1.000
    C60      C        0.99380    0.34890    0.30440    1.000
    H37      H        0.97600    0.39010    0.30260    1.000
    C61      C        0.04290    0.22580    0.31220    1.000
    H38      H        0.05990    0.18450    0.31560    1.000
    C62      C        0.72680    0.21220    0.21160    1.000
    H39      H        0.69480    0.24340    0.23800    1.000
    C63      C        0.69490    0.12700    0.12360    1.000
    C64      C        0.89640    0.15560    0.18370    1.000
    H40      H        0.97960    0.14840    0.19150    1.000
    C65      C        0.81820    0.11740    0.13480    1.000
    H41      H        0.84970    0.08530    0.10970    1.000
    C66      C        0.12350    0.26680    0.35200    1.000
    H42      H        0.19460    0.25290    0.38220    1.000
    Cd3      Cd       0.63237    0.55739    0.52872    1.000
    O9       O        0.65400    0.45650    0.53980    1.000
    O10      O        0.17700    0.07166    0.87990    1.000
    O11      O        0.50300    0.39610    0.55540    1.000
    O12      O        0.27860    0.15003    0.93630    1.000
    N19      N        0.06780    0.49750    0.25890    1.000
    N20      N        0.94390    0.55820    0.18460    1.000
    H43      H        0.88410    0.58150    0.16650    1.000
    N21      N        0.53640    0.55310    0.63670    1.000
    N22      N        0.27490    0.56440    0.85340    1.000
    H44      H        0.23690    0.59320    0.82640    1.000
    N23      N        0.41020    0.49000    0.89150    1.000
    N24      N        0.74380    0.54650    0.42790    1.000
    N25      N        0.11770    0.50460    0.19330    1.000
    N26      N        0.33340    0.49670    0.94400    1.000
    C67      C        0.42890    0.54000    0.76870    1.000
    C68      C        0.58750    0.51870    0.69690    1.000
    H45      H        0.66020    0.49910    0.69350    1.000
    N27      N        0.96730    0.61420    0.95500    1.000
    C69      C        0.37190    0.53180    0.83830    1.000
    C70      C        0.88860    0.53510    0.31320    1.000
    C71      C        0.79100    0.57500    0.30390    1.000
    H46      H        0.77280    0.59830    0.25910    1.000
    C72      C        0.96440    0.53020    0.25220    1.000
    C73      C        0.53730    0.51110    0.76290    1.000
    H47      H        0.57550    0.48690    0.80330    1.000
    C74      C        0.05290    0.56080    0.07170    1.000
    C75      C        0.91180    0.50160    0.38150    1.000
    H48      H        0.97710    0.47490    0.39010    1.000
    C76      C        0.03950    0.54170    0.15050    1.000
    C77      C        0.43240    0.58100    0.64220    1.000
    H49      H        0.39580    0.60480    0.60090    1.000
    C78      C        0.37660    0.57590    0.70740    1.000
    H50      H        0.30460    0.59640    0.70980    1.000
    C79      C        0.83680    0.50830    0.43620    1.000
    H51      H        0.85210    0.48500    0.48120    1.000
    C80      C        0.15600    0.56060    0.96150    1.000
    C81      C        0.96430    0.59630    0.02820    1.000
    H52      H        0.89870    0.60840    0.05120    1.000
    C82      C        0.15120    0.54270    0.03700    1.000
    H53      H        0.21270    0.51890    0.06420    1.000
    C83      C        0.09970    0.17050    0.84750    1.000
    C84      C        0.25360    0.54110    0.91940    1.000
    C85      C        0.72150    0.57940    0.36260    1.000
    H54      H        0.65650    0.60630    0.35630    1.000
    C86      C        0.61210    0.41380    0.56730    1.000
    C87      C        0.06250    0.59600    0.92330    1.000
    H55      H        0.06600    0.60780    0.87250    1.000
    C88      C        0.85120    0.29600    0.72080    1.000
    C89      C        0.18910    0.12850    0.89020    1.000
    C90      C        0.91120    0.19150    0.76300    1.000
    H56      H        0.84030    0.17720    0.73290    1.000
    C91      C        0.93570    0.25350    0.76680    1.000
    C92      C        0.64970    0.32570    0.66330    1.000
    H57      H        0.56620    0.31940    0.65720    1.000
    C93      C        0.99380    0.15110    0.80440    1.000
    H58      H        0.97600    0.10990    0.80260    1.000
    C94      C        0.04290    0.27420    0.81220    1.000
    H59      H        0.05990    0.31550    0.81560    1.000
    C95      C        0.72680    0.28780    0.71160    1.000
    H60      H        0.69480    0.25660    0.73800    1.000
    C96      C        0.69490    0.37300    0.62360    1.000
    C97      C        0.89640    0.34440    0.68370    1.000
    H61      H        0.97960    0.35160    0.69150    1.000
    C98      C        0.81820    0.38260    0.63480    1.000
    H62      H        0.84970    0.41470    0.60970    1.000
    C99      C        0.12350    0.23320    0.85200    1.000
    H63      H        0.19460    0.24710    0.88220    1.000
    Cd4      Cd       0.36763    0.05739    0.97128    1.000
    O13      O        0.34600    0.95650    0.96020    1.000
    O14      O        0.82300    0.57166    0.62010    1.000
    O15      O        0.49700    0.89610    0.94460    1.000
    O16      O        0.72140    0.65003    0.56370    1.000
    N28      N        0.93220    0.99750    0.24110    1.000
    N29      N        0.05610    0.05820    0.31540    1.000
    H64      H        0.11590    0.08150    0.33350    1.000
    N30      N        0.46360    0.05310    0.86330    1.000
    N31      N        0.72510    0.06440    0.64660    1.000
    H65      H        0.76310    0.09320    0.67360    1.000
    N32      N        0.58980    0.99000    0.60850    1.000
    N33      N        0.25620    0.04650    0.07210    1.000
    N34      N        0.88230    0.00460    0.30670    1.000
    N35      N        0.66660    0.99670    0.55600    1.000
    C100     C        0.57110    0.04000    0.73130    1.000
    C101     C        0.41250    0.01870    0.80310    1.000
    H66      H        0.33980    0.99910    0.80650    1.000
    N36      N        0.03270    0.11420    0.54500    1.000
    C102     C        0.62810    0.03180    0.66170    1.000
    C103     C        0.11140    0.03510    0.18680    1.000
    C104     C        0.20900    0.07500    0.19610    1.000
    H67      H        0.22720    0.09830    0.24090    1.000
    C105     C        0.03560    0.03020    0.24780    1.000
    C106     C        0.46270    0.01110    0.73710    1.000
    H68      H        0.42450    0.98690    0.69670    1.000
    C107     C        0.94710    0.06080    0.42830    1.000
    C108     C        0.08820    0.00160    0.11850    1.000
    H69      H        0.02290    0.97490    0.10990    1.000
    C109     C        0.96050    0.04170    0.34950    1.000
    C110     C        0.56760    0.08100    0.85780    1.000
    H70      H        0.60420    0.10480    0.89910    1.000
    C111     C        0.62340    0.07590    0.79260    1.000
    H71      H        0.69540    0.09640    0.79020    1.000
    C112     C        0.16320    0.00830    0.06380    1.000
    H72      H        0.14790    0.98500    0.01880    1.000
    C113     C        0.84400    0.06060    0.53850    1.000
    C114     C        0.03570    0.09630    0.47180    1.000
    H73      H        0.10130    0.10840    0.44880    1.000
    C115     C        0.84880    0.04270    0.46300    1.000
    H74      H        0.78730    0.01890    0.43580    1.000
    C116     C        0.90030    0.67050    0.65250    1.000
    C117     C        0.74640    0.04110    0.58060    1.000
    C118     C        0.27850    0.07940    0.13740    1.000
    H75      H        0.34350    0.10630    0.14370    1.000
    C119     C        0.38790    0.91380    0.93270    1.000
    C120     C        0.93750    0.09600    0.57670    1.000
    H76      H        0.93400    0.10780    0.62750    1.000
    C121     C        0.14880    0.79600    0.77920    1.000
    C122     C        0.81090    0.62850    0.60980    1.000
    C123     C        0.08880    0.69150    0.73700    1.000
    H77      H        0.15970    0.67720    0.76710    1.000
    C124     C        0.06430    0.75350    0.73320    1.000
    C125     C        0.35030    0.82570    0.83670    1.000
    H78      H        0.43380    0.81940    0.84280    1.000
    C126     C        0.00620    0.65110    0.69560    1.000
    H79      H        0.02400    0.60990    0.69740    1.000
    C127     C        0.95710    0.77420    0.68780    1.000
    H80      H        0.94010    0.81550    0.68440    1.000
    C128     C        0.27320    0.78780    0.78840    1.000
    H81      H        0.30520    0.75660    0.76200    1.000
    C129     C        0.30510    0.87300    0.87640    1.000
    C130     C        0.10360    0.84440    0.81630    1.000
    H82      H        0.02040    0.85160    0.80850    1.000
    C131     C        0.18180    0.88260    0.86520    1.000
    H83      H        0.15030    0.91470    0.89030    1.000
    C132     C        0.87650    0.73320    0.64800    1.000
    H84      H        0.80540    0.74710    0.61780    1.000
