# CIF file generated by openbabel 3.1.0, see https://openbabel.org
data_I
_chemical_name_common 'image0'
_cell_length_a 29.1453
_cell_length_b 29.1453
_cell_length_c 16.991
_cell_angle_alpha 90
_cell_angle_beta 90
_cell_angle_gamma 120
_space_group_name_H-M_alt 'P 1'
_space_group_name_Hall 'P 1'
loop_
    _symmetry_equiv_pos_as_xyz
    x,y,z
loop_
    _atom_site_label
    _atom_site_type_symbol
    _atom_site_fract_x
    _atom_site_fract_y
    _atom_site_fract_z
    _atom_site_occupancy
    In1      In       0.53098    0.84293    0.38651    1.000
    C1       C        0.59893    0.79216    0.21890    1.000
    O1       O        0.59175    0.82798    0.34111    1.000
    O2       O        0.44567    0.80374    0.36670    1.000
    O3       O        0.60022    0.70999    0.97708    1.000
    O4       O        0.74934    0.77432    0.15880    1.000
    O5       O        0.47735    0.74981    0.38057    1.000
    O6       O        0.53341    0.81588    0.24841    1.000
    O7       O        0.52694    0.70817    0.01040    1.000
    C2       C        0.64710    0.75193    0.12300    1.000
    H1       H        0.66280    0.73770    0.09130    1.000
    C3       C        0.43896    0.75726    0.37000    1.000
    C4       C        0.64875    0.79994    0.23900    1.000
    H2       H        0.66520    0.81790    0.28500    1.000
    C5       C        0.67384    0.78083    0.19030    1.000
    C6       C        0.57386    0.76447    0.15100    1.000
    H3       H        0.54070    0.75950    0.13770    1.000
    C7       C        0.38424    0.71051    0.36400    1.000
    O8       O        0.75323    0.81869    0.26605    1.000
    C8       C        0.57374    0.71860    0.02610    1.000
    C9       C        0.57237    0.81307    0.27180    1.000
    C10      C        0.72826    0.79164    0.20750    1.000
    C11      C        0.59792    0.74427    0.10310    1.000
    C12      C        0.37729    0.65943    0.36430    1.000
    H4       H        0.40650    0.65470    0.36460    1.000
    In2      In       0.19765    0.17626    0.71985    1.000
    C13      C        0.26560    0.12549    0.55223    1.000
    O9       O        0.25842    0.16131    0.67444    1.000
    O10      O        0.11234    0.13707    0.70003    1.000
    O11      O        0.26689    0.04332    0.31041    1.000
    O12      O        0.41601    0.10765    0.49213    1.000
    O13      O        0.14402    0.08314    0.71390    1.000
    O14      O        0.20008    0.14921    0.58174    1.000
    O15      O        0.19361    0.04150    0.34373    1.000
    C14      C        0.31377    0.08526    0.45633    1.000
    H5       H        0.32947    0.07103    0.42463    1.000
    C15      C        0.10563    0.09059    0.70333    1.000
    C16      C        0.31542    0.13327    0.57233    1.000
    H6       H        0.33187    0.15123    0.61833    1.000
    C17      C        0.34051    0.11416    0.52363    1.000
    C18      C        0.24053    0.09780    0.48433    1.000
    H7       H        0.20737    0.09283    0.47103    1.000
    C19      C        0.05091    0.04384    0.69733    1.000
    O16      O        0.41990    0.15202    0.59938    1.000
    C20      C        0.24041    0.05193    0.35943    1.000
    C21      C        0.23904    0.14640    0.60513    1.000
    C22      C        0.39493    0.12497    0.54083    1.000
    C23      C        0.26459    0.07760    0.43643    1.000
    C24      C        0.04396    0.99276    0.69763    1.000
    H8       H        0.07317    0.98803    0.69793    1.000
    In3      In       0.86431    0.50960    0.05318    1.000
    C25      C        0.93226    0.45883    0.88557    1.000
    O17      O        0.92508    0.49465    0.00778    1.000
    O18      O        0.77900    0.47041    0.03337    1.000
    O19      O        0.93355    0.37666    0.64375    1.000
    O20      O        0.08267    0.44099    0.82547    1.000
    O21      O        0.81068    0.41648    0.04724    1.000
    O22      O        0.86674    0.48255    0.91508    1.000
    O23      O        0.86027    0.37484    0.67707    1.000
    C26      C        0.98043    0.41860    0.78967    1.000
    H9       H        0.99613    0.40437    0.75797    1.000
    C27      C        0.77229    0.42393    0.03667    1.000
    C28      C        0.98208    0.46661    0.90567    1.000
    H10      H        0.99853    0.48457    0.95167    1.000
    C29      C        0.00717    0.44750    0.85697    1.000
    C30      C        0.90719    0.43114    0.81767    1.000
    H11      H        0.87403    0.42617    0.80437    1.000
    C31      C        0.71757    0.37718    0.03067    1.000
    O24      O        0.08656    0.48536    0.93272    1.000
    C32      C        0.90707    0.38527    0.69277    1.000
    C33      C        0.90570    0.47974    0.93847    1.000
    C34      C        0.06159    0.45831    0.87417    1.000
    C35      C        0.93125    0.41094    0.76977    1.000
    C36      C        0.71062    0.32610    0.03097    1.000
    H12      H        0.73983    0.32137    0.03127    1.000
    In4      In       0.15707    0.68805    0.38651    1.000
    C37      C        0.20784    0.80677    0.21890    1.000
    O25      O        0.17202    0.76377    0.34111    1.000
    O26      O        0.19626    0.64193    0.36670    1.000
    O27      O        0.29001    0.89023    0.97708    1.000
    O28      O        0.22568    0.97502    0.15880    1.000
    O29      O        0.25019    0.72754    0.38057    1.000
    O30      O        0.18412    0.71753    0.24841    1.000
    O31      O        0.29183    0.81877    0.01040    1.000
    C38      C        0.24807    0.89517    0.12300    1.000
    H13      H        0.26230    0.92510    0.09130    1.000
    C39      C        0.24274    0.68170    0.37000    1.000
    C40      C        0.20006    0.84881    0.23900    1.000
    H14      H        0.18210    0.84730    0.28500    1.000
    C41      C        0.21917    0.89301    0.19030    1.000
    C42      C        0.23553    0.80939    0.15100    1.000
    H15      H        0.24050    0.78120    0.13770    1.000
    C43      C        0.28949    0.67373    0.36400    1.000
    O32      O        0.18131    0.93454    0.26605    1.000
    C44      C        0.28140    0.85514    0.02610    1.000
    C45      C        0.18693    0.75930    0.27180    1.000
    C46      C        0.20836    0.93662    0.20750    1.000
    C47      C        0.25573    0.85365    0.10310    1.000
    C48      C        0.34057    0.71786    0.36430    1.000
    H16      H        0.34530    0.75180    0.36460    1.000
    In5      In       0.82374    0.02138    0.71985    1.000
    C49      C        0.87451    0.14010    0.55223    1.000
    O33      O        0.83869    0.09710    0.67444    1.000
    O34      O        0.86293    0.97526    0.70003    1.000
    O35      O        0.95668    0.22356    0.31041    1.000
    O36      O        0.89235    0.30835    0.49213    1.000
    O37      O        0.91686    0.06087    0.71390    1.000
    O38      O        0.85079    0.05086    0.58174    1.000
    O39      O        0.95850    0.15210    0.34373    1.000
    C50      C        0.91474    0.22850    0.45633    1.000
    H17      H        0.92897    0.25843    0.42463    1.000
    C51      C        0.90941    0.01503    0.70333    1.000
    C52      C        0.86673    0.18214    0.57233    1.000
    H18      H        0.84877    0.18063    0.61833    1.000
    C53      C        0.88584    0.22634    0.52363    1.000
    C54      C        0.90220    0.14272    0.48433    1.000
    H19      H        0.90717    0.11453    0.47103    1.000
    C55      C        0.95616    0.00706    0.69733    1.000
    O40      O        0.84798    0.26787    0.59938    1.000
    C56      C        0.94807    0.18847    0.35943    1.000
    C57      C        0.85360    0.09263    0.60513    1.000
    C58      C        0.87503    0.26995    0.54083    1.000
    C59      C        0.92240    0.18698    0.43643    1.000
    C60      C        0.00724    0.05119    0.69763    1.000
    H20      H        0.01197    0.08513    0.69793    1.000
    In6      In       0.49040    0.35472    0.05318    1.000
    C61      C        0.54117    0.47344    0.88557    1.000
    O41      O        0.50535    0.43044    0.00778    1.000
    O42      O        0.52959    0.30860    0.03337    1.000
    O43      O        0.62334    0.55690    0.64375    1.000
    O44      O        0.55901    0.64169    0.82547    1.000
    O45      O        0.58352    0.39421    0.04724    1.000
    O46      O        0.51745    0.38420    0.91508    1.000
    O47      O        0.62516    0.48544    0.67707    1.000
    C62      C        0.58140    0.56184    0.78967    1.000
    H21      H        0.59563    0.59177    0.75797    1.000
    C63      C        0.57607    0.34837    0.03667    1.000
    C64      C        0.53339    0.51548    0.90567    1.000
    H22      H        0.51543    0.51397    0.95167    1.000
    C65      C        0.55250    0.55968    0.85697    1.000
    C66      C        0.56886    0.47606    0.81767    1.000
    H23      H        0.57383    0.44787    0.80437    1.000
    C67      C        0.62282    0.34040    0.03067    1.000
    O48      O        0.51464    0.60121    0.93272    1.000
    C68      C        0.61473    0.52181    0.69277    1.000
    C69      C        0.52026    0.42597    0.93847    1.000
    C70      C        0.54169    0.60329    0.87417    1.000
    C71      C        0.58906    0.52032    0.76977    1.000
    C72      C        0.67390    0.38453    0.03097    1.000
    H24      H        0.67863    0.41847    0.03127    1.000
    In7      In       0.31195    0.46902    0.38651    1.000
    C73      C        0.19323    0.40107    0.21890    1.000
    O49      O        0.23623    0.40825    0.34111    1.000
    O50      O        0.35807    0.55433    0.36670    1.000
    O51      O        0.10977    0.39978    0.97708    1.000
    O52      O        0.02498    0.25066    0.15880    1.000
    O53      O        0.27246    0.52265    0.38057    1.000
    O54      O        0.28247    0.46659    0.24841    1.000
    O55      O        0.18123    0.47306    0.01040    1.000
    C74      C        0.10483    0.35290    0.12300    1.000
    H25      H        0.07490    0.33720    0.09130    1.000
    C75      C        0.31830    0.56104    0.37000    1.000
    C76      C        0.15119    0.35125    0.23900    1.000
    H26      H        0.15270    0.33480    0.28500    1.000
    C77      C        0.10699    0.32616    0.19030    1.000
    C78      C        0.19061    0.42614    0.15100    1.000
    H27      H        0.21880    0.45930    0.13770    1.000
    C79      C        0.32627    0.61576    0.36400    1.000
    O56      O        0.06546    0.24677    0.26605    1.000
    C80      C        0.14486    0.42626    0.02610    1.000
    C81      C        0.24070    0.42763    0.27180    1.000
    C82      C        0.06338    0.27174    0.20750    1.000
    C83      C        0.14635    0.40208    0.10310    1.000
    C84      C        0.28214    0.62271    0.36430    1.000
    H28      H        0.24820    0.59350    0.36460    1.000
    In8      In       0.97862    0.80235    0.71985    1.000
    C85      C        0.85990    0.73440    0.55223    1.000
    O57      O        0.90290    0.74158    0.67444    1.000
    O58      O        0.02474    0.88766    0.70003    1.000
    O59      O        0.77644    0.73311    0.31041    1.000
    O60      O        0.69165    0.58399    0.49213    1.000
    O61      O        0.93913    0.85598    0.71390    1.000
    O62      O        0.94914    0.79992    0.58174    1.000
    O63      O        0.84790    0.80639    0.34373    1.000
    C86      C        0.77150    0.68623    0.45633    1.000
    H29      H        0.74157    0.67053    0.42463    1.000
    C87      C        0.98497    0.89437    0.70333    1.000
    C88      C        0.81786    0.68458    0.57233    1.000
    H30      H        0.81937    0.66813    0.61833    1.000
    C89      C        0.77366    0.65949    0.52363    1.000
    C90      C        0.85728    0.75947    0.48433    1.000
    H31      H        0.88547    0.79263    0.47103    1.000
    C91      C        0.99294    0.94909    0.69733    1.000
    O64      O        0.73213    0.58010    0.59938    1.000
    C92      C        0.81153    0.75959    0.35943    1.000
    C93      C        0.90737    0.76096    0.60513    1.000
    C94      C        0.73005    0.60507    0.54083    1.000
    C95      C        0.81302    0.73541    0.43643    1.000
    C96      C        0.94881    0.95604    0.69763    1.000
    H32      H        0.91487    0.92683    0.69793    1.000
    In9      In       0.64528    0.13569    0.05318    1.000
    C97      C        0.52656    0.06774    0.88557    1.000
    O65      O        0.56956    0.07492    0.00778    1.000
    O66      O        0.69140    0.22100    0.03337    1.000
    O67      O        0.44310    0.06645    0.64375    1.000
    O68      O        0.35831    0.91733    0.82547    1.000
    O69      O        0.60579    0.18932    0.04724    1.000
    O70      O        0.61580    0.13326    0.91508    1.000
    O71      O        0.51456    0.13973    0.67707    1.000
    C98      C        0.43816    0.01957    0.78967    1.000
    H33      H        0.40823    0.00387    0.75797    1.000
    C99      C        0.65163    0.22771    0.03667    1.000
    C100     C        0.48452    0.01792    0.90567    1.000
    H34      H        0.48603    0.00147    0.95167    1.000
    C101     C        0.44032    0.99283    0.85697    1.000
    C102     C        0.52394    0.09281    0.81767    1.000
    H35      H        0.55213    0.12597    0.80437    1.000
    C103     C        0.65960    0.28243    0.03067    1.000
    O72      O        0.39879    0.91344    0.93272    1.000
    C104     C        0.47819    0.09293    0.69277    1.000
    C105     C        0.57403    0.09430    0.93847    1.000
    C106     C        0.39671    0.93841    0.87417    1.000
    C107     C        0.47968    0.06875    0.76977    1.000
    C108     C        0.61547    0.28938    0.03097    1.000
    H36      H        0.58153    0.26017    0.03127    1.000
    In10     In       0.15707    0.46902    0.88651    1.000
    C109     C        0.20784    0.40107    0.71890    1.000
    O73      O        0.17202    0.40825    0.84111    1.000
    O74      O        0.19626    0.55433    0.86670    1.000
    O75      O        0.29001    0.39978    0.47708    1.000
    O76      O        0.22568    0.25066    0.65880    1.000
    O77      O        0.25019    0.52265    0.88057    1.000
    O78      O        0.18412    0.46659    0.74841    1.000
    O79      O        0.29183    0.47306    0.51040    1.000
    C110     C        0.24807    0.35290    0.62300    1.000
    H37      H        0.26230    0.33720    0.59130    1.000
    C111     C        0.24274    0.56104    0.87000    1.000
    C112     C        0.20006    0.35125    0.73900    1.000
    H38      H        0.18210    0.33480    0.78500    1.000
    C113     C        0.21917    0.32616    0.69030    1.000
    C114     C        0.23553    0.42614    0.65100    1.000
    H39      H        0.24050    0.45930    0.63770    1.000
    C115     C        0.28949    0.61576    0.86400    1.000
    O80      O        0.18131    0.24677    0.76605    1.000
    C116     C        0.28140    0.42626    0.52610    1.000
    C117     C        0.18693    0.42763    0.77180    1.000
    C118     C        0.20836    0.27174    0.70750    1.000
    C119     C        0.25573    0.40208    0.60310    1.000
    C120     C        0.34057    0.62271    0.86430    1.000
    H40      H        0.34530    0.59350    0.86460    1.000
    In11     In       0.82374    0.80235    0.21985    1.000
    C121     C        0.87451    0.73440    0.05223    1.000
    O81      O        0.83869    0.74158    0.17444    1.000
    O82      O        0.86293    0.88766    0.20003    1.000
    O83      O        0.95668    0.73311    0.81041    1.000
    O84      O        0.89235    0.58399    0.99213    1.000
    O85      O        0.91686    0.85598    0.21390    1.000
    O86      O        0.85079    0.79992    0.08174    1.000
    O87      O        0.95850    0.80639    0.84373    1.000
    C122     C        0.91474    0.68623    0.95633    1.000
    H41      H        0.92897    0.67053    0.92463    1.000
    C123     C        0.90941    0.89437    0.20333    1.000
    C124     C        0.86673    0.68458    0.07233    1.000
    H42      H        0.84877    0.66813    0.11833    1.000
    C125     C        0.88584    0.65949    0.02363    1.000
    C126     C        0.90220    0.75947    0.98433    1.000
    H43      H        0.90717    0.79263    0.97103    1.000
    C127     C        0.95616    0.94909    0.19733    1.000
    O88      O        0.84798    0.58010    0.09938    1.000
    C128     C        0.94807    0.75959    0.85943    1.000
    C129     C        0.85360    0.76096    0.10513    1.000
    C130     C        0.87503    0.60507    0.04083    1.000
    C131     C        0.92240    0.73541    0.93643    1.000
    C132     C        0.00724    0.95604    0.19763    1.000
    H44      H        0.01197    0.92683    0.19793    1.000
    In12     In       0.49040    0.13569    0.55318    1.000
    C133     C        0.54117    0.06774    0.38557    1.000
    O89      O        0.50535    0.07492    0.50778    1.000
    O90      O        0.52959    0.22100    0.53337    1.000
    O91      O        0.62334    0.06645    0.14375    1.000
    O92      O        0.55901    0.91733    0.32547    1.000
    O93      O        0.58352    0.18932    0.54724    1.000
    O94      O        0.51745    0.13326    0.41508    1.000
    O95      O        0.62516    0.13973    0.17707    1.000
    C134     C        0.58140    0.01957    0.28967    1.000
    H45      H        0.59563    0.00387    0.25797    1.000
    C135     C        0.57607    0.22771    0.53667    1.000
    C136     C        0.53339    0.01792    0.40567    1.000
    H46      H        0.51543    0.00147    0.45167    1.000
    C137     C        0.55250    0.99283    0.35697    1.000
    C138     C        0.56886    0.09281    0.31767    1.000
    H47      H        0.57383    0.12597    0.30437    1.000
    C139     C        0.62282    0.28243    0.53067    1.000
    O96      O        0.51464    0.91344    0.43272    1.000
    C140     C        0.61473    0.09293    0.19277    1.000
    C141     C        0.52026    0.09430    0.43847    1.000
    C142     C        0.54169    0.93841    0.37417    1.000
    C143     C        0.58906    0.06875    0.26977    1.000
    C144     C        0.67390    0.28938    0.53097    1.000
    H48      H        0.67863    0.26017    0.53127    1.000
    In13     In       0.31195    0.84293    0.88651    1.000
    C145     C        0.19323    0.79216    0.71890    1.000
    O97      O        0.23623    0.82798    0.84111    1.000
    O98      O        0.35807    0.80374    0.86670    1.000
    O99      O        0.10977    0.70999    0.47708    1.000
    O100     O        0.02498    0.77432    0.65880    1.000
    O101     O        0.27246    0.74981    0.88057    1.000
    O102     O        0.28247    0.81588    0.74841    1.000
    O103     O        0.18123    0.70817    0.51040    1.000
    C146     C        0.10483    0.75193    0.62300    1.000
    H49      H        0.07490    0.73770    0.59130    1.000
    C147     C        0.31830    0.75726    0.87000    1.000
    C148     C        0.15119    0.79994    0.73900    1.000
    H50      H        0.15270    0.81790    0.78500    1.000
    C149     C        0.10699    0.78083    0.69030    1.000
    C150     C        0.19061    0.76447    0.65100    1.000
    H51      H        0.21880    0.75950    0.63770    1.000
    C151     C        0.32627    0.71051    0.86400    1.000
    O104     O        0.06546    0.81869    0.76605    1.000
    C152     C        0.14486    0.71860    0.52610    1.000
    C153     C        0.24070    0.81307    0.77180    1.000
    C154     C        0.06338    0.79164    0.70750    1.000
    C155     C        0.14635    0.74427    0.60310    1.000
    C156     C        0.28214    0.65943    0.86430    1.000
    H52      H        0.24820    0.65470    0.86460    1.000
    In14     In       0.97862    0.17626    0.21985    1.000
    C157     C        0.85990    0.12549    0.05223    1.000
    O105     O        0.90290    0.16131    0.17444    1.000
    O106     O        0.02474    0.13707    0.20003    1.000
    O107     O        0.77644    0.04332    0.81041    1.000
    O108     O        0.69165    0.10765    0.99213    1.000
    O109     O        0.93913    0.08314    0.21390    1.000
    O110     O        0.94914    0.14921    0.08174    1.000
    O111     O        0.84790    0.04150    0.84373    1.000
    C158     C        0.77150    0.08526    0.95633    1.000
    H53      H        0.74157    0.07103    0.92463    1.000
    C159     C        0.98497    0.09059    0.20333    1.000
    C160     C        0.81786    0.13327    0.07233    1.000
    H54      H        0.81937    0.15123    0.11833    1.000
    C161     C        0.77366    0.11416    0.02363    1.000
    C162     C        0.85728    0.09780    0.98433    1.000
    H55      H        0.88547    0.09283    0.97103    1.000
    C163     C        0.99294    0.04384    0.19733    1.000
    O112     O        0.73213    0.15202    0.09938    1.000
    C164     C        0.81153    0.05193    0.85943    1.000
    C165     C        0.90737    0.14640    0.10513    1.000
    C166     C        0.73005    0.12497    0.04083    1.000
    C167     C        0.81302    0.07760    0.93643    1.000
    C168     C        0.94881    0.99276    0.19763    1.000
    H56      H        0.91487    0.98803    0.19793    1.000
    In15     In       0.64528    0.50960    0.55318    1.000
    C169     C        0.52656    0.45883    0.38557    1.000
    O113     O        0.56956    0.49465    0.50778    1.000
    O114     O        0.69140    0.47041    0.53337    1.000
    O115     O        0.44310    0.37666    0.14375    1.000
    O116     O        0.35831    0.44099    0.32547    1.000
    O117     O        0.60579    0.41648    0.54724    1.000
    O118     O        0.61580    0.48255    0.41508    1.000
    O119     O        0.51456    0.37484    0.17707    1.000
    C170     C        0.43816    0.41860    0.28967    1.000
    H57      H        0.40823    0.40437    0.25797    1.000
    C171     C        0.65163    0.42393    0.53667    1.000
    C172     C        0.48452    0.46661    0.40567    1.000
    H58      H        0.48603    0.48457    0.45167    1.000
    C173     C        0.44032    0.44750    0.35697    1.000
    C174     C        0.52394    0.43114    0.31767    1.000
    H59      H        0.55213    0.42617    0.30437    1.000
    C175     C        0.65960    0.37718    0.53067    1.000
    O120     O        0.39879    0.48536    0.43272    1.000
    C176     C        0.47819    0.38527    0.19277    1.000
    C177     C        0.57403    0.47974    0.43847    1.000
    C178     C        0.39671    0.45831    0.37417    1.000
    C179     C        0.47968    0.41094    0.26977    1.000
    C180     C        0.61547    0.32610    0.53097    1.000
    H60      H        0.58153    0.32137    0.53127    1.000
    In16     In       0.53098    0.68805    0.88651    1.000
    C181     C        0.59893    0.80677    0.71890    1.000
    O121     O        0.59175    0.76377    0.84111    1.000
    O122     O        0.44567    0.64193    0.86670    1.000
    O123     O        0.60022    0.89023    0.47708    1.000
    O124     O        0.74934    0.97502    0.65880    1.000
    O125     O        0.47735    0.72754    0.88057    1.000
    O126     O        0.53341    0.71753    0.74841    1.000
    O127     O        0.52694    0.81877    0.51040    1.000
    C182     C        0.64710    0.89517    0.62300    1.000
    H61      H        0.66280    0.92510    0.59130    1.000
    C183     C        0.43896    0.68170    0.87000    1.000
    C184     C        0.64875    0.84881    0.73900    1.000
    H62      H        0.66520    0.84730    0.78500    1.000
    C185     C        0.67384    0.89301    0.69030    1.000
    C186     C        0.57386    0.80939    0.65100    1.000
    H63      H        0.54070    0.78120    0.63770    1.000
    C187     C        0.38424    0.67373    0.86400    1.000
    O128     O        0.75323    0.93454    0.76605    1.000
    C188     C        0.57374    0.85514    0.52610    1.000
    C189     C        0.57237    0.75930    0.77180    1.000
    C190     C        0.72826    0.93662    0.70750    1.000
    C191     C        0.59792    0.85365    0.60310    1.000
    C192     C        0.37729    0.71786    0.86430    1.000
    H64      H        0.40650    0.75180    0.86460    1.000
    In17     In       0.19765    0.02138    0.21985    1.000
    C193     C        0.26560    0.14010    0.05223    1.000
    O129     O        0.25842    0.09710    0.17444    1.000
    O130     O        0.11234    0.97526    0.20003    1.000
    O131     O        0.26689    0.22356    0.81041    1.000
    O132     O        0.41601    0.30835    0.99213    1.000
    O133     O        0.14402    0.06087    0.21390    1.000
    O134     O        0.20008    0.05086    0.08174    1.000
    O135     O        0.19361    0.15210    0.84373    1.000
    C194     C        0.31377    0.22850    0.95633    1.000
    H65      H        0.32947    0.25843    0.92463    1.000
    C195     C        0.10563    0.01503    0.20333    1.000
    C196     C        0.31542    0.18214    0.07233    1.000
    H66      H        0.33187    0.18063    0.11833    1.000
    C197     C        0.34051    0.22634    0.02363    1.000
    C198     C        0.24053    0.14272    0.98433    1.000
    H67      H        0.20737    0.11453    0.97103    1.000
    C199     C        0.05091    0.00706    0.19733    1.000
    O136     O        0.41990    0.26787    0.09938    1.000
    C200     C        0.24041    0.18847    0.85943    1.000
    C201     C        0.23904    0.09263    0.10513    1.000
    C202     C        0.39493    0.26995    0.04083    1.000
    C203     C        0.26459    0.18698    0.93643    1.000
    C204     C        0.04396    0.05119    0.19763    1.000
    H68      H        0.07317    0.08513    0.19793    1.000
    In18     In       0.86431    0.35472    0.55318    1.000
    C205     C        0.93226    0.47344    0.38557    1.000
    O137     O        0.92508    0.43044    0.50778    1.000
    O138     O        0.77900    0.30860    0.53337    1.000
    O139     O        0.93355    0.55690    0.14375    1.000
    O140     O        0.08267    0.64169    0.32547    1.000
    O141     O        0.81068    0.39421    0.54724    1.000
    O142     O        0.86674    0.38420    0.41508    1.000
    O143     O        0.86027    0.48544    0.17707    1.000
    C206     C        0.98043    0.56184    0.28967    1.000
    H69      H        0.99613    0.59177    0.25797    1.000
    C207     C        0.77229    0.34837    0.53667    1.000
    C208     C        0.98208    0.51548    0.40567    1.000
    H70      H        0.99853    0.51397    0.45167    1.000
    C209     C        0.00717    0.55968    0.35697    1.000
    C210     C        0.90719    0.47606    0.31767    1.000
    H71      H        0.87403    0.44787    0.30437    1.000
    C211     C        0.71757    0.34040    0.53067    1.000
    O144     O        0.08656    0.60121    0.43272    1.000
    C212     C        0.90707    0.52181    0.19277    1.000
    C213     C        0.90570    0.42597    0.43847    1.000
    C214     C        0.06159    0.60329    0.37417    1.000
    C215     C        0.93125    0.52032    0.26977    1.000
    C216     C        0.71062    0.38453    0.53097    1.000
    H72      H        0.73983    0.41847    0.53127    1.000
