# CIF file generated by openbabel 3.1.0, see https://openbabel.org
data_I
_chemical_name_common 'image0'
_cell_length_a 7.497
_cell_length_b 13.154
_cell_length_c 18.206
_cell_angle_alpha 90
_cell_angle_beta 90
_cell_angle_gamma 90
_space_group_name_H-M_alt 'P 1'
_space_group_name_Hall 'P 1'
loop_
    _symmetry_equiv_pos_as_xyz
    x,y,z
loop_
    _atom_site_label
    _atom_site_type_symbol
    _atom_site_fract_x
    _atom_site_fract_y
    _atom_site_fract_z
    _atom_site_occupancy
    Zn1      Zn       0.04302    0.62424    0.03604    1.000
    Zn2      Zn       0.04317    0.37161    0.03836    1.000
    Zn3      Zn       0.60023    0.37188    0.05862    1.000
    Zn4      Zn       0.59798    0.62520    0.05609    1.000
    Zn5      Zn       0.65867    0.50330    0.83275    1.000
    P1       P        0.79170    0.30430    0.91424    1.000
    P2       P        0.33814    0.49560    0.95996    1.000
    P3       P        0.79000    0.69980    0.91434    1.000
    P4       P        0.85512    0.49960    0.15719    1.000
    O1       O        0.80740    0.38670    0.85610    1.000
    O2       O        0.80460    0.35160    0.99150    1.000
    O3       O        0.94730    0.23200    0.90540    1.000
    O4       O        0.60750    0.25030    0.90910    1.000
    O5       O        0.48100    0.49650    0.02280    1.000
    O6       O        0.22650    0.39880    0.96830    1.000
    O7       O        0.22680    0.59130    0.96460    1.000
    O8       O        0.43410    0.49420    0.88582    1.000
    O9       O        0.80550    0.64360    0.99110    1.000
    O10      O        0.80120    0.62330    0.85210    1.000
    O11      O        0.60910    0.75280    0.91310    1.000
    O12      O        0.94170    0.77560    0.90830    1.000
    O13      O        0.01090    0.49740    0.09859    1.000
    O14      O        0.93610    0.50310    0.23328    1.000
    O15      O        0.74150    0.59320    0.14280    1.000
    O16      O        0.74770    0.40160    0.14490    1.000
    Zn6      Zn       0.45698    0.37576    0.53604    1.000
    Zn7      Zn       0.45683    0.62839    0.53836    1.000
    Zn8      Zn       0.89977    0.62812    0.55862    1.000
    Zn9      Zn       0.90202    0.37480    0.55609    1.000
    Zn10     Zn       0.84133    0.49670    0.33275    1.000
    P5       P        0.70830    0.69570    0.41424    1.000
    P6       P        0.16186    0.50440    0.45996    1.000
    P7       P        0.71000    0.30020    0.41434    1.000
    P8       P        0.64488    0.50040    0.65719    1.000
    O17      O        0.69260    0.61330    0.35610    1.000
    O18      O        0.69540    0.64840    0.49150    1.000
    O19      O        0.55270    0.76800    0.40540    1.000
    O20      O        0.89250    0.74970    0.40910    1.000
    O21      O        0.01900    0.50350    0.52280    1.000
    O22      O        0.27350    0.60120    0.46830    1.000
    O23      O        0.27320    0.40870    0.46460    1.000
    O24      O        0.06590    0.50580    0.38582    1.000
    O25      O        0.69450    0.35640    0.49110    1.000
    O26      O        0.69880    0.37670    0.35210    1.000
    O27      O        0.89090    0.24720    0.41310    1.000
    O28      O        0.55830    0.22440    0.40830    1.000
    O29      O        0.48910    0.50260    0.59859    1.000
    O30      O        0.56390    0.49690    0.73328    1.000
    O31      O        0.75850    0.40680    0.64280    1.000
    O32      O        0.75230    0.59840    0.64490    1.000
    Zn11     Zn       0.95698    0.12424    0.46396    1.000
    Zn12     Zn       0.95683    0.87161    0.46164    1.000
    Zn13     Zn       0.39977    0.87188    0.44138    1.000
    Zn14     Zn       0.40202    0.12520    0.44391    1.000
    Zn15     Zn       0.34133    0.00330    0.66725    1.000
    P9       P        0.20830    0.80430    0.58576    1.000
    P10      P        0.66186    0.99560    0.54004    1.000
    P11      P        0.21000    0.19980    0.58566    1.000
    P12      P        0.14488    0.99960    0.34281    1.000
    O33      O        0.19260    0.88670    0.64390    1.000
    O34      O        0.19540    0.85160    0.50850    1.000
    O35      O        0.05270    0.73200    0.59460    1.000
    O36      O        0.39250    0.75030    0.59090    1.000
    O37      O        0.51900    0.99650    0.47720    1.000
    O38      O        0.77350    0.89880    0.53170    1.000
    O39      O        0.77320    0.09130    0.53540    1.000
    O40      O        0.56590    0.99420    0.61418    1.000
    O41      O        0.19450    0.14360    0.50890    1.000
    O42      O        0.19880    0.12330    0.64790    1.000
    O43      O        0.39090    0.25280    0.58690    1.000
    O44      O        0.05830    0.27560    0.59170    1.000
    O45      O        0.98910    0.99740    0.40141    1.000
    O46      O        0.06390    0.00310    0.26672    1.000
    O47      O        0.25850    0.09320    0.35720    1.000
    O48      O        0.25230    0.90160    0.35510    1.000
    Zn16     Zn       0.54302    0.87576    0.96396    1.000
    Zn17     Zn       0.54317    0.12839    0.96164    1.000
    Zn18     Zn       0.10023    0.12812    0.94138    1.000
    Zn19     Zn       0.09798    0.87480    0.94391    1.000
    Zn20     Zn       0.15867    0.99670    0.16725    1.000
    P13      P        0.29170    0.19570    0.08576    1.000
    P14      P        0.83814    0.00440    0.04004    1.000
    P15      P        0.29000    0.80020    0.08566    1.000
    P16      P        0.35512    0.00040    0.84281    1.000
    O49      O        0.30740    0.11330    0.14390    1.000
    O50      O        0.30460    0.14840    0.00850    1.000
    O51      O        0.44730    0.26800    0.09460    1.000
    O52      O        0.10750    0.24970    0.09090    1.000
    O53      O        0.98100    0.00350    0.97720    1.000
    O54      O        0.72650    0.10120    0.03170    1.000
    O55      O        0.72680    0.90870    0.03540    1.000
    O56      O        0.93410    0.00580    0.11418    1.000
    O57      O        0.30550    0.85640    0.00890    1.000
    O58      O        0.30120    0.87670    0.14790    1.000
    O59      O        0.10910    0.74720    0.08690    1.000
    O60      O        0.44170    0.72440    0.09170    1.000
    O61      O        0.51090    0.00260    0.90141    1.000
    O62      O        0.43610    0.99690    0.76672    1.000
    O63      O        0.24150    0.90680    0.85720    1.000
    O64      O        0.24770    0.09840    0.85510    1.000
