# CIF file generated by openbabel 3.1.0, see https://openbabel.org
data_I
_chemical_name_common 'PEDMOB_clean'
_cell_length_a 7.9172
_cell_length_b 20.3854
_cell_length_c 17.7768
_cell_angle_alpha 90
_cell_angle_beta 90
_cell_angle_gamma 90
_space_group_name_H-M_alt 'P 1'
_space_group_name_Hall 'P 1'
loop_
    _symmetry_equiv_pos_as_xyz
    x,y,z
loop_
    _atom_site_label
    _atom_site_type_symbol
    _atom_site_fract_x
    _atom_site_fract_y
    _atom_site_fract_z
    _atom_site_occupancy
    Cu1      Cu       0.33031    0.95139    0.89378    1.000
    Cu2      Cu       0.66969    0.04861    0.89378    1.000
    Cu3      Cu       0.83031    0.54861    0.10622    1.000
    Cu4      Cu       0.16969    0.45139    0.10622    1.000
    Cu5      Cu       0.66969    0.04861    0.10622    1.000
    Cu6      Cu       0.33031    0.95139    0.10622    1.000
    Cu7      Cu       0.16969    0.45139    0.89378    1.000
    Cu8      Cu       0.83031    0.54861    0.89378    1.000
    P1       P        0.27112    0.80065    0.84486    1.000
    P2       P        0.72888    0.19935    0.84486    1.000
    P3       P        0.77112    0.69935    0.15514    1.000
    P4       P        0.22888    0.30065    0.15514    1.000
    P5       P        0.72888    0.19935    0.15514    1.000
    P6       P        0.27112    0.80065    0.15514    1.000
    P7       P        0.22888    0.30065    0.84486    1.000
    P8       P        0.77112    0.69935    0.84486    1.000
    P9       P        0.11970    0.57155    0.00000    1.000
    P10      P        0.88030    0.42845    0.00000    1.000
    P11      P        0.61970    0.92845    0.00000    1.000
    P12      P        0.38030    0.07155    0.00000    1.000
    H1       H        0.02910    0.78970    0.81240    1.000
    H2       H        0.19610    0.66580    0.88560    1.000
    H3       H        0.26170    0.93330    0.61250    1.000
    H4       H        0.07590    0.10010    0.70380    1.000
    H5       H        0.10790    0.09200    0.56730    1.000
    H6       H        0.96610    0.03970    0.56970    1.000
    H7       H        0.30450    0.89700    0.73100    1.000
    H8       H        0.20100    0.06800    0.81800    1.000
    H9       H        0.97090    0.21030    0.81240    1.000
    H10      H        0.80390    0.33420    0.88560    1.000
    H11      H        0.73830    0.06670    0.61250    1.000
    H12      H        0.92410    0.89990    0.70380    1.000
    H13      H        0.89210    0.90800    0.56730    1.000
    H14      H        0.03390    0.96030    0.56970    1.000
    H15      H        0.69550    0.10300    0.73100    1.000
    H16      H        0.79900    0.93200    0.81800    1.000
    H17      H        0.52910    0.71030    0.18760    1.000
    H18      H        0.69610    0.83420    0.11440    1.000
    H19      H        0.76170    0.56670    0.38750    1.000
    H20      H        0.57590    0.39990    0.29620    1.000
    H21      H        0.60790    0.40800    0.43270    1.000
    H22      H        0.46610    0.46030    0.43030    1.000
    H23      H        0.80450    0.60300    0.26900    1.000
    H24      H        0.70100    0.43200    0.18200    1.000
    H25      H        0.47090    0.28970    0.18760    1.000
    H26      H        0.30390    0.16580    0.11440    1.000
    H27      H        0.23830    0.43330    0.38750    1.000
    H28      H        0.42410    0.60010    0.29620    1.000
    H29      H        0.39210    0.59200    0.43270    1.000
    H30      H        0.53390    0.53970    0.43030    1.000
    H31      H        0.19550    0.39700    0.26900    1.000
    H32      H        0.29900    0.56800    0.18200    1.000
    H33      H        0.97090    0.21030    0.18760    1.000
    H34      H        0.80390    0.33420    0.11440    1.000
    H35      H        0.73830    0.06670    0.38750    1.000
    H36      H        0.92410    0.89990    0.29620    1.000
    H37      H        0.89210    0.90800    0.43270    1.000
    H38      H        0.03390    0.96030    0.43030    1.000
    H39      H        0.69550    0.10300    0.26900    1.000
    H40      H        0.79900    0.93200    0.18200    1.000
    H41      H        0.02910    0.78970    0.18760    1.000
    H42      H        0.19610    0.66580    0.11440    1.000
    H43      H        0.26170    0.93330    0.38750    1.000
    H44      H        0.07590    0.10010    0.29620    1.000
    H45      H        0.10790    0.09200    0.43270    1.000
    H46      H        0.96610    0.03970    0.43030    1.000
    H47      H        0.30450    0.89700    0.26900    1.000
    H48      H        0.20100    0.06800    0.18200    1.000
    H49      H        0.47090    0.28970    0.81240    1.000
    H50      H        0.30390    0.16580    0.88560    1.000
    H51      H        0.23830    0.43330    0.61250    1.000
    H52      H        0.42410    0.60010    0.70380    1.000
    H53      H        0.39210    0.59200    0.56730    1.000
    H54      H        0.53390    0.53970    0.56970    1.000
    H55      H        0.19550    0.39700    0.73100    1.000
    H56      H        0.29900    0.56800    0.81800    1.000
    H57      H        0.52910    0.71030    0.81240    1.000
    H58      H        0.69610    0.83420    0.88560    1.000
    H59      H        0.76170    0.56670    0.61250    1.000
    H60      H        0.57590    0.39990    0.70380    1.000
    H61      H        0.60790    0.40800    0.56730    1.000
    H62      H        0.46610    0.46030    0.56970    1.000
    H63      H        0.80450    0.60300    0.73100    1.000
    H64      H        0.70100    0.43200    0.81800    1.000
    H65      H        0.30900    0.82600    0.00000    1.000
    H66      H        0.69100    0.17400    0.00000    1.000
    H67      H        0.80900    0.67400    0.00000    1.000
    H68      H        0.19100    0.32600    0.00000    1.000
    C1       C        0.24840    0.75590    0.93190    1.000
    C2       C        0.20830    0.68900    0.93230    1.000
    C3       C        0.23500    0.96090    0.65460    1.000
    C4       C        0.15660    0.02030    0.64410    1.000
    C5       C        0.14000    0.06020    0.70670    1.000
    C6       C        0.08600    0.04570    0.57020    1.000
    C7       C        0.28300    0.94270    0.72260    1.000
    C8       C        0.22050    0.04260    0.77600    1.000
    C9       C        0.75160    0.24410    0.93190    1.000
    C10      C        0.79170    0.31100    0.93230    1.000
    C11      C        0.76500    0.03910    0.65460    1.000
    C12      C        0.84340    0.97970    0.64410    1.000
    C13      C        0.86000    0.93980    0.70670    1.000
    C14      C        0.91400    0.95430    0.57020    1.000
    C15      C        0.71700    0.05730    0.72260    1.000
    C16      C        0.77950    0.95740    0.77600    1.000
    C17      C        0.74840    0.74410    0.06810    1.000
    C18      C        0.70830    0.81100    0.06770    1.000
    C19      C        0.73500    0.53910    0.34540    1.000
    C20      C        0.65660    0.47970    0.35590    1.000
    C21      C        0.64000    0.43980    0.29330    1.000
    C22      C        0.58600    0.45430    0.42980    1.000
    C23      C        0.78300    0.55730    0.27740    1.000
    C24      C        0.72050    0.45740    0.22400    1.000
    C25      C        0.25160    0.25590    0.06810    1.000
    C26      C        0.29170    0.18900    0.06770    1.000
    C27      C        0.26500    0.46090    0.34540    1.000
    C28      C        0.34340    0.52030    0.35590    1.000
    C29      C        0.36000    0.56020    0.29330    1.000
    C30      C        0.41400    0.54570    0.42980    1.000
    C31      C        0.21700    0.44270    0.27740    1.000
    C32      C        0.27950    0.54260    0.22400    1.000
    C33      C        0.75160    0.24410    0.06810    1.000
    C34      C        0.79170    0.31100    0.06770    1.000
    C35      C        0.76500    0.03910    0.34540    1.000
    C36      C        0.84340    0.97970    0.35590    1.000
    C37      C        0.86000    0.93980    0.29330    1.000
    C38      C        0.91400    0.95430    0.42980    1.000
    C39      C        0.71700    0.05730    0.27740    1.000
    C40      C        0.77950    0.95740    0.22400    1.000
    C41      C        0.24840    0.75590    0.06810    1.000
    C42      C        0.20830    0.68900    0.06770    1.000
    C43      C        0.23500    0.96090    0.34540    1.000
    C44      C        0.15660    0.02030    0.35590    1.000
    C45      C        0.14000    0.06020    0.29330    1.000
    C46      C        0.08600    0.04570    0.42980    1.000
    C47      C        0.28300    0.94270    0.27740    1.000
    C48      C        0.22050    0.04260    0.22400    1.000
    C49      C        0.25160    0.25590    0.93190    1.000
    C50      C        0.29170    0.18900    0.93230    1.000
    C51      C        0.26500    0.46090    0.65460    1.000
    C52      C        0.34340    0.52030    0.64410    1.000
    C53      C        0.36000    0.56020    0.70670    1.000
    C54      C        0.41400    0.54570    0.57020    1.000
    C55      C        0.21700    0.44270    0.72260    1.000
    C56      C        0.27950    0.54260    0.77600    1.000
    C57      C        0.74840    0.74410    0.93190    1.000
    C58      C        0.70830    0.81100    0.93230    1.000
    C59      C        0.73500    0.53910    0.65460    1.000
    C60      C        0.65660    0.47970    0.64410    1.000
    C61      C        0.64000    0.43980    0.70670    1.000
    C62      C        0.58600    0.45430    0.57020    1.000
    C63      C        0.78300    0.55730    0.72260    1.000
    C64      C        0.72050    0.45740    0.77600    1.000
    C65      C        0.26800    0.78850    0.00000    1.000
    C66      C        0.18670    0.65610    0.00000    1.000
    C67      C        0.73200    0.21150    0.00000    1.000
    C68      C        0.81330    0.34390    0.00000    1.000
    C69      C        0.76800    0.71150    0.00000    1.000
    C70      C        0.68670    0.84390    0.00000    1.000
    C71      C        0.23200    0.28850    0.00000    1.000
    C72      C        0.31330    0.15610    0.00000    1.000
    C73      C        0.16100    0.01210    0.50000    1.000
    C74      C        0.83900    0.98790    0.50000    1.000
    C75      C        0.66100    0.48790    0.50000    1.000
    C76      C        0.33900    0.51210    0.50000    1.000
    N1       N        0.28960    0.98300    0.78750    1.000
    N2       N        0.71040    0.01700    0.78750    1.000
    N3       N        0.78960    0.51700    0.21250    1.000
    N4       N        0.21040    0.48300    0.21250    1.000
    N5       N        0.71040    0.01700    0.21250    1.000
    N6       N        0.28960    0.98300    0.21250    1.000
    N7       N        0.21040    0.48300    0.78750    1.000
    N8       N        0.78960    0.51700    0.78750    1.000
    O1       O        0.36920    0.86286    0.86097    1.000
    O2       O        0.08840    0.82290    0.82165    1.000
    O3       O        0.34950    0.75635    0.78660    1.000
    O4       O        0.18300    0.54129    0.07230    1.000
    O5       O        0.63080    0.13714    0.86097    1.000
    O6       O        0.91160    0.17710    0.82165    1.000
    O7       O        0.65050    0.24365    0.78660    1.000
    O8       O        0.81700    0.45871    0.07230    1.000
    O9       O        0.86920    0.63714    0.13903    1.000
    O10      O        0.58840    0.67710    0.17835    1.000
    O11      O        0.84950    0.74365    0.21340    1.000
    O12      O        0.68300    0.95871    0.92770    1.000
    O13      O        0.13080    0.36286    0.13903    1.000
    O14      O        0.41160    0.32290    0.17835    1.000
    O15      O        0.15050    0.25635    0.21340    1.000
    O16      O        0.31700    0.04129    0.92770    1.000
    O17      O        0.63080    0.13714    0.13903    1.000
    O18      O        0.91160    0.17710    0.17835    1.000
    O19      O        0.65050    0.24365    0.21340    1.000
    O20      O        0.81700    0.45871    0.92770    1.000
    O21      O        0.36920    0.86286    0.13903    1.000
    O22      O        0.08840    0.82290    0.17835    1.000
    O23      O        0.34950    0.75635    0.21340    1.000
    O24      O        0.18300    0.54129    0.92770    1.000
    O25      O        0.13080    0.36286    0.86097    1.000
    O26      O        0.41160    0.32290    0.82165    1.000
    O27      O        0.15050    0.25635    0.78660    1.000
    O28      O        0.31700    0.04129    0.07230    1.000
    O29      O        0.86920    0.63714    0.86097    1.000
    O30      O        0.58840    0.67710    0.82165    1.000
    O31      O        0.84950    0.74365    0.78660    1.000
    O32      O        0.68300    0.95871    0.07230    1.000
    O33      O        0.92440    0.57007    0.00000    1.000
    O34      O        0.07560    0.42993    0.00000    1.000
    O35      O        0.42440    0.92993    0.00000    1.000
    O36      O        0.57560    0.07007    0.00000    1.000
