# CIF file generated by openbabel 3.1.0, see https://openbabel.org
data_I
_chemical_name_common 'KOMGUP_clean'
_cell_length_a 9.3531
_cell_length_b 9.8055
_cell_length_c 16.1941
_cell_angle_alpha 90
_cell_angle_beta 90
_cell_angle_gamma 90
_space_group_name_H-M_alt 'P 1'
_space_group_name_Hall 'P 1'
loop_
    _symmetry_equiv_pos_as_xyz
    x,y,z
loop_
    _atom_site_label
    _atom_site_type_symbol
    _atom_site_fract_x
    _atom_site_fract_y
    _atom_site_fract_z
    _atom_site_occupancy
    Zn1      Zn       0.94050    0.12002    0.58234    1.000
    Zn2      Zn       0.44050    0.37998    0.41766    1.000
    Zn3      Zn       0.05950    0.87998    0.08234    1.000
    Zn4      Zn       0.55950    0.62002    0.91766    1.000
    Zn5      Zn       0.05950    0.87998    0.41766    1.000
    Zn6      Zn       0.55950    0.62002    0.58234    1.000
    Zn7      Zn       0.94050    0.12002    0.91766    1.000
    Zn8      Zn       0.44050    0.37998    0.08234    1.000
    H1       H        0.67040    0.02130    0.66480    1.000
    H2       H        0.58120    0.89560    0.66830    1.000
    H3       H        0.82740    0.67080    0.46810    1.000
    H4       H        0.17040    0.47870    0.33520    1.000
    H5       H        0.08120    0.60440    0.33170    1.000
    H6       H        0.32740    0.82920    0.53190    1.000
    H7       H        0.32960    0.97870    0.16480    1.000
    H8       H        0.41880    0.10440    0.16830    1.000
    H9       H        0.17260    0.32920    0.96810    1.000
    H10      H        0.82960    0.52130    0.83520    1.000
    H11      H        0.91880    0.39560    0.83170    1.000
    H12      H        0.67260    0.17080    0.03190    1.000
    H13      H        0.32960    0.97870    0.33520    1.000
    H14      H        0.41880    0.10440    0.33170    1.000
    H15      H        0.17260    0.32920    0.53190    1.000
    H16      H        0.82960    0.52130    0.66480    1.000
    H17      H        0.91880    0.39560    0.66830    1.000
    H18      H        0.67260    0.17080    0.46810    1.000
    H19      H        0.67040    0.02130    0.83520    1.000
    H20      H        0.58120    0.89560    0.83170    1.000
    H21      H        0.82740    0.67080    0.03190    1.000
    H22      H        0.17040    0.47870    0.16480    1.000
    H23      H        0.08120    0.60440    0.16830    1.000
    H24      H        0.32740    0.82920    0.96810    1.000
    C1       C        0.74030    0.87900    0.59320    1.000
    C2       C        0.81760    0.74580    0.50280    1.000
    C3       C        0.24030    0.62100    0.40680    1.000
    C4       C        0.31760    0.75420    0.49720    1.000
    C5       C        0.25970    0.12100    0.09320    1.000
    C6       C        0.18240    0.25420    0.00280    1.000
    C7       C        0.75970    0.37900    0.90680    1.000
    C8       C        0.68240    0.24580    0.99720    1.000
    C9       C        0.25970    0.12100    0.40680    1.000
    C10      C        0.18240    0.25420    0.49720    1.000
    C11      C        0.75970    0.37900    0.59320    1.000
    C12      C        0.68240    0.24580    0.50280    1.000
    C13      C        0.74030    0.87900    0.90680    1.000
    C14      C        0.81760    0.74580    0.99720    1.000
    C15      C        0.24030    0.62100    0.09320    1.000
    C16      C        0.31760    0.75420    0.00280    1.000
    C17      C        0.97530    0.14040    0.75000    1.000
    C18      C        0.47530    0.35960    0.25000    1.000
    C19      C        0.02470    0.85960    0.25000    1.000
    C20      C        0.52470    0.64040    0.75000    1.000
    N1       N        0.85450    0.93910    0.55980    1.000
    N2       N        0.90240    0.84870    0.50110    1.000
    N3       N        0.71370    0.75720    0.55920    1.000
    N4       N        0.65340    0.93920    0.64880    1.000
    N5       N        0.35450    0.56090    0.44020    1.000
    N6       N        0.40240    0.65130    0.49890    1.000
    N7       N        0.21370    0.74280    0.44080    1.000
    N8       N        0.15340    0.56080    0.35120    1.000
    N9       N        0.14550    0.06090    0.05980    1.000
    N10      N        0.09760    0.15130    0.00110    1.000
    N11      N        0.28630    0.24280    0.05920    1.000
    N12      N        0.34660    0.06080    0.14880    1.000
    N13      N        0.64550    0.43910    0.94020    1.000
    N14      N        0.59760    0.34870    0.99890    1.000
    N15      N        0.78630    0.25720    0.94080    1.000
    N16      N        0.84660    0.43920    0.85120    1.000
    N17      N        0.14550    0.06090    0.44020    1.000
    N18      N        0.09760    0.15130    0.49890    1.000
    N19      N        0.28630    0.24280    0.44080    1.000
    N20      N        0.34660    0.06080    0.35120    1.000
    N21      N        0.64550    0.43910    0.55980    1.000
    N22      N        0.59760    0.34870    0.50110    1.000
    N23      N        0.78630    0.25720    0.55920    1.000
    N24      N        0.84660    0.43920    0.64880    1.000
    N25      N        0.85450    0.93910    0.94020    1.000
    N26      N        0.90240    0.84870    0.99890    1.000
    N27      N        0.71370    0.75720    0.94080    1.000
    N28      N        0.65340    0.93920    0.85120    1.000
    N29      N        0.35450    0.56090    0.05980    1.000
    N30      N        0.40240    0.65130    0.00110    1.000
    N31      N        0.21370    0.74280    0.05920    1.000
    N32      N        0.15340    0.56080    0.14880    1.000
    O1       O        0.04180    0.16220    0.68200    1.000
    O2       O        0.54180    0.33780    0.31800    1.000
    O3       O        0.95820    0.83780    0.18200    1.000
    O4       O        0.45820    0.66220    0.81800    1.000
    O5       O        0.95820    0.83780    0.31800    1.000
    O6       O        0.45820    0.66220    0.68200    1.000
    O7       O        0.04180    0.16220    0.81800    1.000
    O8       O        0.54180    0.33780    0.18200    1.000
    O9       O        0.84980    0.10990    0.75000    1.000
    O10      O        0.34980    0.39010    0.25000    1.000
    O11      O        0.15020    0.89010    0.25000    1.000
    O12      O        0.65020    0.60990    0.75000    1.000
