# CIF file generated by openbabel 3.1.0, see https://openbabel.org
data_I
_chemical_name_common 'image0'
_cell_length_a 11.242
_cell_length_b 14.367
_cell_length_c 16.751
_cell_angle_alpha 90
_cell_angle_beta 109.518
_cell_angle_gamma 90
_space_group_name_H-M_alt 'P 1'
_space_group_name_Hall 'P 1'
loop_
    _symmetry_equiv_pos_as_xyz
    x,y,z
loop_
    _atom_site_label
    _atom_site_type_symbol
    _atom_site_fract_x
    _atom_site_fract_y
    _atom_site_fract_z
    _atom_site_occupancy
    O1       O        0.78910    0.13930    0.04120    1.000
    O2       O        0.79940    0.20820    0.18140    1.000
    O3       O        0.49060    0.11660    0.04170    1.000
    O4       O        0.41130    0.97210    0.09810    1.000
    O5       O        0.61410    0.04430    0.18280    1.000
    O6       O        0.68500    0.29640    0.82660    1.000
    O7       O        0.55650    0.24320    0.91450    1.000
    O8       O        0.70510    0.37910    0.96460    1.000
    O9       O        0.09630    0.99460    0.40560    1.000
    O10      O        0.87450    0.04590    0.32530    1.000
    O11      O        0.99780    0.12130    0.46440    1.000
    O12      O        0.93460    0.27280    0.10360    1.000
    P1       P        0.86680    0.18830    0.11980    1.000
    P2       P        0.48840    0.06120    0.11820    1.000
    P3       P        0.62080    0.32410    0.88960    1.000
    P4       P        0.00450    0.07390    0.38600    1.000
    Zn1      Zn       0.60823    0.12918    0.98016    1.000
    Zn2      Zn       0.74216    0.12539    0.25330    1.000
    Zn3      Zn       0.88234    0.37933    0.02751    1.000
    O13      O        0.21090    0.63930    0.45880    1.000
    O14      O        0.20060    0.70820    0.31860    1.000
    O15      O        0.50940    0.61660    0.45830    1.000
    O16      O        0.58870    0.47210    0.40190    1.000
    O17      O        0.38590    0.54430    0.31720    1.000
    O18      O        0.31500    0.79640    0.67340    1.000
    O19      O        0.44350    0.74320    0.58550    1.000
    O20      O        0.29490    0.87910    0.53540    1.000
    O21      O        0.90370    0.49460    0.09440    1.000
    O22      O        0.12550    0.54590    0.17470    1.000
    O23      O        0.00220    0.62130    0.03560    1.000
    O24      O        0.06540    0.77280    0.39640    1.000
    P5       P        0.13320    0.68830    0.38020    1.000
    P6       P        0.51160    0.56120    0.38180    1.000
    P7       P        0.37920    0.82410    0.61040    1.000
    P8       P        0.99550    0.57390    0.11400    1.000
    Zn4      Zn       0.39177    0.62918    0.51984    1.000
    Zn5      Zn       0.25784    0.62539    0.24670    1.000
    Zn6      Zn       0.11766    0.87933    0.47249    1.000
    O25      O        0.21090    0.86070    0.95880    1.000
    O26      O        0.20060    0.79180    0.81860    1.000
    O27      O        0.50940    0.88340    0.95830    1.000
    O28      O        0.58870    0.02790    0.90190    1.000
    O29      O        0.38590    0.95570    0.81720    1.000
    O30      O        0.31500    0.70360    0.17340    1.000
    O31      O        0.44350    0.75680    0.08550    1.000
    O32      O        0.29490    0.62090    0.03540    1.000
    O33      O        0.90370    0.00540    0.59440    1.000
    O34      O        0.12550    0.95410    0.67470    1.000
    O35      O        0.00220    0.87870    0.53560    1.000
    O36      O        0.06540    0.72720    0.89640    1.000
    P9       P        0.13320    0.81170    0.88020    1.000
    P10      P        0.51160    0.93880    0.88180    1.000
    P11      P        0.37920    0.67590    0.11040    1.000
    P12      P        0.99550    0.92610    0.61400    1.000
    Zn7      Zn       0.39177    0.87082    0.01984    1.000
    Zn8      Zn       0.25784    0.87461    0.74670    1.000
    Zn9      Zn       0.11766    0.62067    0.97249    1.000
    O37      O        0.78910    0.36070    0.54120    1.000
    O38      O        0.79940    0.29180    0.68140    1.000
    O39      O        0.49060    0.38340    0.54170    1.000
    O40      O        0.41130    0.52790    0.59810    1.000
    O41      O        0.61410    0.45570    0.68280    1.000
    O42      O        0.68500    0.20360    0.32660    1.000
    O43      O        0.55650    0.25680    0.41450    1.000
    O44      O        0.70510    0.12090    0.46460    1.000
    O45      O        0.09630    0.50540    0.90560    1.000
    O46      O        0.87450    0.45410    0.82530    1.000
    O47      O        0.99780    0.37870    0.96440    1.000
    O48      O        0.93460    0.22720    0.60360    1.000
    P13      P        0.86680    0.31170    0.61980    1.000
    P14      P        0.48840    0.43880    0.61820    1.000
    P15      P        0.62080    0.17590    0.38960    1.000
    P16      P        0.00450    0.42610    0.88600    1.000
    Zn10     Zn       0.60823    0.37082    0.48016    1.000
    Zn11     Zn       0.74216    0.37461    0.75330    1.000
    Zn12     Zn       0.88234    0.12067    0.52751    1.000
