# CIF file generated by openbabel 3.1.0, see https://openbabel.org
data_I
_chemical_name_common 'image0'
_cell_length_a 8.594
_cell_length_b 8.594
_cell_length_c 12.4441
_cell_angle_alpha 90
_cell_angle_beta 90
_cell_angle_gamma 120
_space_group_name_H-M_alt 'P 1'
_space_group_name_Hall 'P 1'
loop_
    _symmetry_equiv_pos_as_xyz
    x,y,z
loop_
    _atom_site_label
    _atom_site_type_symbol
    _atom_site_fract_x
    _atom_site_fract_y
    _atom_site_fract_z
    _atom_site_occupancy
    O1       O        0.66300    0.91480    0.09890    1.000
    O2       O        0.30760    0.75130    0.10440    1.000
    O3       O        0.08520    0.74820    0.76557    1.000
    O4       O        0.24870    0.55630    0.77107    1.000
    O5       O        0.25180    0.33700    0.43223    1.000
    O6       O        0.44370    0.69240    0.43773    1.000
    O7       O        0.33700    0.08520    0.09890    1.000
    O8       O        0.69240    0.24870    0.10440    1.000
    O9       O        0.91480    0.25180    0.76557    1.000
    O10      O        0.75130    0.44370    0.77107    1.000
    O11      O        0.74820    0.66300    0.43223    1.000
    O12      O        0.55630    0.30760    0.43773    1.000
    O13      O        0.91480    0.66300    0.56777    1.000
    O14      O        0.75130    0.30760    0.56227    1.000
    O15      O        0.74820    0.08520    0.90110    1.000
    O16      O        0.55630    0.24870    0.89560    1.000
    O17      O        0.33700    0.25180    0.23443    1.000
    O18      O        0.69240    0.44370    0.22893    1.000
    O19      O        0.08520    0.33700    0.56777    1.000
    O20      O        0.24870    0.69240    0.56227    1.000
    O21      O        0.25180    0.91480    0.90110    1.000
    O22      O        0.44370    0.75130    0.89560    1.000
    O23      O        0.66300    0.74820    0.23443    1.000
    O24      O        0.30760    0.55630    0.22893    1.000
    Sc1      Sc       0.50000    0.00000    0.00000    1.000
    Sc2      Sc       0.00000    0.50000    0.66667    1.000
    Sc3      Sc       0.50000    0.50000    0.33333    1.000
    C1       C        0.58930    0.79465    0.16667    1.000
    C2       C        0.37930    0.68965    0.16667    1.000
    C3       C        0.20535    0.79465    0.83333    1.000
    C4       C        0.31035    0.68965    0.83333    1.000
    C5       C        0.20535    0.41070    0.50000    1.000
    C6       C        0.31035    0.62070    0.50000    1.000
    C7       C        0.41070    0.20535    0.16667    1.000
    C8       C        0.62070    0.31035    0.16667    1.000
    C9       C        0.79465    0.20535    0.83333    1.000
    C10      C        0.68965    0.31035    0.83333    1.000
    C11      C        0.79465    0.58930    0.50000    1.000
    C12      C        0.68965    0.37930    0.50000    1.000
