# CIF file generated by openbabel 3.1.0, see https://openbabel.org
data_I
_chemical_name_common 'image0'
_cell_length_a 8.2326
_cell_length_b 13.5545
_cell_length_c 17.4759
_cell_angle_alpha 90
_cell_angle_beta 90
_cell_angle_gamma 90
_space_group_name_H-M_alt 'P 1'
_space_group_name_Hall 'P 1'
loop_
    _symmetry_equiv_pos_as_xyz
    x,y,z
loop_
    _atom_site_label
    _atom_site_type_symbol
    _atom_site_fract_x
    _atom_site_fract_y
    _atom_site_fract_z
    _atom_site_occupancy
    C1       C        0.65550    0.95260    0.91460    1.000
    H1       H        0.73100    0.91480    0.94560    1.000
    H2       H        0.71250    0.97680    0.86980    1.000
    C2       C        0.58900    0.03450    0.95850    1.000
    C3       C        0.58200    0.03020    0.03550    1.000
    H3       H        0.65530    0.98060    0.05380    1.000
    H4       H        0.47300    0.01390    0.05100    1.000
    H5       H        0.61110    0.09310    0.05660    1.000
    C4       C        0.48190    0.11060    0.91080    1.000
    C5       C        0.38970    0.18150    0.96370    1.000
    C6       C        0.53100    0.18360    0.78180    1.000
    C7       C        0.49430    0.09030    0.73720    1.000
    C8       C        0.61240    0.02480    0.71470    1.000
    H6       H        0.72010    0.03600    0.72830    1.000
    C9       C        0.57150    0.94130    0.67150    1.000
    H7       H        0.65360    0.89840    0.65640    1.000
    C10      C        0.30490    0.98490    0.67280    1.000
    H8       H        0.19820    0.97230    0.65840    1.000
    C11      C        0.33560    0.06840    0.71530    1.000
    H9       H        0.25070    0.10990    0.72940    1.000
    N1       N        0.41880    0.92140    0.65130    1.000
    N2       N        0.59410    0.16580    0.86000    1.000
    O1       O        0.27040    0.14520    0.99816    1.000
    O2       O        0.43890    0.26830    0.97028    1.000
    Zn1      Zn       0.15366    0.20017    0.08627    1.000
    H10      H        0.68900    0.12800    0.84900    1.000
    H11      H        0.40000    0.08600    0.87700    1.000
    H12      H        0.42900    0.19400    0.78400    1.000
    C12      C        0.84450    0.04740    0.41460    1.000
    H13      H        0.76900    0.08520    0.44560    1.000
    H14      H        0.78750    0.02320    0.36980    1.000
    C13      C        0.91100    0.96550    0.45850    1.000
    C14      C        0.91800    0.96980    0.53550    1.000
    H15      H        0.84470    0.01940    0.55380    1.000
    H16      H        0.02700    0.98610    0.55100    1.000
    H17      H        0.88890    0.90690    0.55660    1.000
    C15      C        0.01810    0.88940    0.41080    1.000
    C16      C        0.11030    0.81850    0.46370    1.000
    C17      C        0.96900    0.81640    0.28180    1.000
    C18      C        0.00570    0.90970    0.23720    1.000
    C19      C        0.88760    0.97520    0.21470    1.000
    H18      H        0.77990    0.96400    0.22830    1.000
    C20      C        0.92850    0.05870    0.17150    1.000
    H19      H        0.84640    0.10160    0.15640    1.000
    C21      C        0.19510    0.01510    0.17280    1.000
    H20      H        0.30180    0.02770    0.15840    1.000
    C22      C        0.16440    0.93160    0.21530    1.000
    H21      H        0.24930    0.89010    0.22940    1.000
    N3       N        0.08120    0.07860    0.15130    1.000
    N4       N        0.90590    0.83420    0.36000    1.000
    O3       O        0.22960    0.85480    0.49816    1.000
    O4       O        0.06110    0.73170    0.47028    1.000
    Zn2      Zn       0.34634    0.79983    0.58627    1.000
    H22      H        0.81100    0.87200    0.34900    1.000
    H23      H        0.10000    0.91400    0.37700    1.000
    H24      H        0.07100    0.80600    0.28400    1.000
    C23      C        0.34450    0.45260    0.58540    1.000
    H25      H        0.26900    0.41480    0.55440    1.000
    H26      H        0.28750    0.47680    0.63020    1.000
    C24      C        0.41100    0.53450    0.54150    1.000
    C25      C        0.41800    0.53020    0.46450    1.000
    H27      H        0.34470    0.48060    0.44620    1.000
    H28      H        0.52700    0.51390    0.44900    1.000
    H29      H        0.38890    0.59310    0.44340    1.000
    C26      C        0.51810    0.61060    0.58920    1.000
    C27      C        0.61030    0.68150    0.53630    1.000
    C28      C        0.46900    0.68360    0.71820    1.000
    C29      C        0.50570    0.59030    0.76280    1.000
    C30      C        0.38760    0.52480    0.78530    1.000
    H30      H        0.27990    0.53600    0.77170    1.000
    C31      C        0.42850    0.44130    0.82850    1.000
    H31      H        0.34640    0.39840    0.84360    1.000
    C32      C        0.69510    0.48490    0.82720    1.000
    H32      H        0.80180    0.47230    0.84160    1.000
    C33      C        0.66440    0.56840    0.78470    1.000
    H33      H        0.74930    0.60990    0.77060    1.000
    N5       N        0.58120    0.42140    0.84870    1.000
    N6       N        0.40590    0.66580    0.64000    1.000
    O5       O        0.72960    0.64520    0.50184    1.000
    O6       O        0.56110    0.76830    0.52972    1.000
    Zn3      Zn       0.84634    0.70017    0.41373    1.000
    H34      H        0.31100    0.62800    0.65100    1.000
    H35      H        0.60000    0.58600    0.62300    1.000
    H36      H        0.57100    0.69400    0.71600    1.000
    C34      C        0.15550    0.54740    0.08540    1.000
    H37      H        0.23100    0.58520    0.05440    1.000
    H38      H        0.21250    0.52320    0.13020    1.000
    C35      C        0.08900    0.46550    0.04150    1.000
    C36      C        0.08200    0.46980    0.96450    1.000
    H39      H        0.15530    0.51940    0.94620    1.000
    H40      H        0.97300    0.48610    0.94900    1.000
    H41      H        0.11110    0.40690    0.94340    1.000
    C37      C        0.98190    0.38940    0.08920    1.000
    C38      C        0.88970    0.31850    0.03630    1.000
    C39      C        0.03100    0.31640    0.21820    1.000
    C40      C        0.99430    0.40970    0.26280    1.000
    C41      C        0.11240    0.47520    0.28530    1.000
    H42      H        0.22010    0.46400    0.27170    1.000
    C42      C        0.07150    0.55870    0.32850    1.000
    H43      H        0.15360    0.60160    0.34360    1.000
    C43      C        0.80490    0.51510    0.32720    1.000
    H44      H        0.69820    0.52770    0.34160    1.000
    C44      C        0.83560    0.43160    0.28470    1.000
    H45      H        0.75070    0.39010    0.27060    1.000
    N7       N        0.91880    0.57860    0.34870    1.000
    N8       N        0.09410    0.33420    0.14000    1.000
    O7       O        0.77040    0.35480    0.00184    1.000
    O8       O        0.93890    0.23170    0.02972    1.000
    Zn4      Zn       0.65366    0.29983    0.91373    1.000
    H46      H        0.18900    0.37200    0.15100    1.000
    H47      H        0.90000    0.41400    0.12300    1.000
    H48      H        0.92900    0.30600    0.21600    1.000
