# CIF file generated by openbabel 3.1.0, see https://openbabel.org
data_I
_chemical_name_common 'image0'
_cell_length_a 23.4617
_cell_length_b 8.117
_cell_length_c 16.8976
_cell_angle_alpha 90
_cell_angle_beta 112.873
_cell_angle_gamma 90
_space_group_name_H-M_alt 'P 1'
_space_group_name_Hall 'P 1'
loop_
    _symmetry_equiv_pos_as_xyz
    x,y,z
loop_
    _atom_site_label
    _atom_site_type_symbol
    _atom_site_fract_x
    _atom_site_fract_y
    _atom_site_fract_z
    _atom_site_occupancy
    C1       C        0.15688    0.41460    0.59499    1.000
    C2       C        0.12966    0.33380    0.65494    1.000
    Ga1      Ga       0.16119    0.65777    0.71148    1.000
    Ga2      Ga       0.10343    0.11589    0.51524    1.000
    H1       H        0.03620    0.94300    0.63800    1.000
    H2       H        0.26400    0.85200    0.64600    1.000
    H3       H        0.20700    0.16000    0.42900    1.000
    H4       H        0.16530    0.99300    0.28900    1.000
    O1       O        0.13498    0.27570    0.30273    1.000
    O2       O        0.10490    0.09770    0.40196    1.000
    O3       O        0.25834    0.10530    0.70480    1.000
    O4       O        0.18264    0.00900    0.56160    1.000
    O5       O        0.97251    0.76160    0.53099    1.000
    O6       O        0.07846    0.68540    0.62644    1.000
    O7       O        0.10801    0.19280    0.63627    1.000
    O8       O        0.18869    0.87350    0.69915    1.000
    O9       O        0.06183    0.91470    0.51774    1.000
    O10      O        0.15153    0.33400    0.52977    1.000
    O11      O        0.18142    0.55270    0.61679    1.000
    O12      O        0.13175    0.41830    0.71860    1.000
    O13      O        0.16113    0.97270    0.32202    1.000
    P1       P        0.03783    0.82632    0.57785    1.000
    P2       P        0.22415    0.95907    0.65173    1.000
    P3       P        0.15274    0.13455    0.36571    1.000
    C3       C        0.65688    0.91460    0.59499    1.000
    C4       C        0.62966    0.83380    0.65494    1.000
    Ga3      Ga       0.66119    0.15777    0.71148    1.000
    Ga4      Ga       0.60343    0.61589    0.51524    1.000
    H5       H        0.53620    0.44300    0.63800    1.000
    H6       H        0.76400    0.35200    0.64600    1.000
    H7       H        0.70700    0.66000    0.42900    1.000
    H8       H        0.66530    0.49300    0.28900    1.000
    O14      O        0.63498    0.77570    0.30273    1.000
    O15      O        0.60490    0.59770    0.40196    1.000
    O16      O        0.75834    0.60530    0.70480    1.000
    O17      O        0.68264    0.50900    0.56160    1.000
    O18      O        0.47251    0.26160    0.53099    1.000
    O19      O        0.57846    0.18540    0.62644    1.000
    O20      O        0.60801    0.69280    0.63627    1.000
    O21      O        0.68869    0.37350    0.69915    1.000
    O22      O        0.56183    0.41470    0.51774    1.000
    O23      O        0.65153    0.83400    0.52977    1.000
    O24      O        0.68142    0.05270    0.61679    1.000
    O25      O        0.63175    0.91830    0.71860    1.000
    O26      O        0.66113    0.47270    0.32202    1.000
    P4       P        0.53783    0.32632    0.57785    1.000
    P5       P        0.72415    0.45907    0.65173    1.000
    P6       P        0.65274    0.63455    0.36571    1.000
    C5       C        0.84312    0.41460    0.90501    1.000
    C6       C        0.87034    0.33380    0.84506    1.000
    Ga5      Ga       0.83881    0.65777    0.78852    1.000
    Ga6      Ga       0.89657    0.11589    0.98476    1.000
    H9       H        0.96380    0.94300    0.86200    1.000
    H10      H        0.73600    0.85200    0.85400    1.000
    H11      H        0.79300    0.16000    0.07100    1.000
    H12      H        0.83470    0.99300    0.21100    1.000
    O27      O        0.86502    0.27570    0.19727    1.000
    O28      O        0.89510    0.09770    0.09804    1.000
    O29      O        0.74166    0.10530    0.79520    1.000
    O30      O        0.81736    0.00900    0.93840    1.000
    O31      O        0.02749    0.76160    0.96901    1.000
    O32      O        0.92154    0.68540    0.87356    1.000
    O33      O        0.89199    0.19280    0.86373    1.000
    O34      O        0.81131    0.87350    0.80085    1.000
    O35      O        0.93817    0.91470    0.98226    1.000
    O36      O        0.84847    0.33400    0.97023    1.000
    O37      O        0.81858    0.55270    0.88321    1.000
    O38      O        0.86825    0.41830    0.78140    1.000
    O39      O        0.83887    0.97270    0.17798    1.000
    P7       P        0.96217    0.82632    0.92215    1.000
    P8       P        0.77585    0.95907    0.84827    1.000
    P9       P        0.84726    0.13455    0.13429    1.000
    C7       C        0.34312    0.91460    0.90501    1.000
    C8       C        0.37034    0.83380    0.84506    1.000
    Ga7      Ga       0.33881    0.15777    0.78852    1.000
    Ga8      Ga       0.39657    0.61589    0.98476    1.000
    H13      H        0.46380    0.44300    0.86200    1.000
    H14      H        0.23600    0.35200    0.85400    1.000
    H15      H        0.29300    0.66000    0.07100    1.000
    H16      H        0.33470    0.49300    0.21100    1.000
    O40      O        0.36502    0.77570    0.19727    1.000
    O41      O        0.39510    0.59770    0.09804    1.000
    O42      O        0.24166    0.60530    0.79520    1.000
    O43      O        0.31736    0.50900    0.93840    1.000
    O44      O        0.52749    0.26160    0.96901    1.000
    O45      O        0.42154    0.18540    0.87356    1.000
    O46      O        0.39199    0.69280    0.86373    1.000
    O47      O        0.31131    0.37350    0.80085    1.000
    O48      O        0.43817    0.41470    0.98226    1.000
    O49      O        0.34847    0.83400    0.97023    1.000
    O50      O        0.31858    0.05270    0.88321    1.000
    O51      O        0.36825    0.91830    0.78140    1.000
    O52      O        0.33887    0.47270    0.17798    1.000
    P10      P        0.46217    0.32632    0.92215    1.000
    P11      P        0.27585    0.45907    0.84827    1.000
    P12      P        0.34726    0.63455    0.13429    1.000
    C9       C        0.84312    0.58540    0.40501    1.000
    C10      C        0.87034    0.66620    0.34506    1.000
    Ga9      Ga       0.83881    0.34223    0.28852    1.000
    Ga10     Ga       0.89657    0.88411    0.48476    1.000
    H17      H        0.96380    0.05700    0.36200    1.000
    H18      H        0.73600    0.14800    0.35400    1.000
    H19      H        0.79300    0.84000    0.57100    1.000
    H20      H        0.83470    0.00700    0.71100    1.000
    O53      O        0.86502    0.72430    0.69727    1.000
    O54      O        0.89510    0.90230    0.59804    1.000
    O55      O        0.74166    0.89470    0.29520    1.000
    O56      O        0.81736    0.99100    0.43840    1.000
    O57      O        0.02749    0.23840    0.46901    1.000
    O58      O        0.92154    0.31460    0.37356    1.000
    O59      O        0.89199    0.80720    0.36373    1.000
    O60      O        0.81131    0.12650    0.30085    1.000
    O61      O        0.93817    0.08530    0.48226    1.000
    O62      O        0.84847    0.66600    0.47023    1.000
    O63      O        0.81858    0.44730    0.38321    1.000
    O64      O        0.86825    0.58170    0.28140    1.000
    O65      O        0.83887    0.02730    0.67798    1.000
    P13      P        0.96217    0.17368    0.42215    1.000
    P14      P        0.77585    0.04093    0.34827    1.000
    P15      P        0.84726    0.86545    0.63429    1.000
    C11      C        0.34312    0.08540    0.40501    1.000
    C12      C        0.37034    0.16620    0.34506    1.000
    Ga11     Ga       0.33881    0.84223    0.28852    1.000
    Ga12     Ga       0.39657    0.38411    0.48476    1.000
    H21      H        0.46380    0.55700    0.36200    1.000
    H22      H        0.23600    0.64800    0.35400    1.000
    H23      H        0.29300    0.34000    0.57100    1.000
    H24      H        0.33470    0.50700    0.71100    1.000
    O66      O        0.36502    0.22430    0.69727    1.000
    O67      O        0.39510    0.40230    0.59804    1.000
    O68      O        0.24166    0.39470    0.29520    1.000
    O69      O        0.31736    0.49100    0.43840    1.000
    O70      O        0.52749    0.73840    0.46901    1.000
    O71      O        0.42154    0.81460    0.37356    1.000
    O72      O        0.39199    0.30720    0.36373    1.000
    O73      O        0.31131    0.62650    0.30085    1.000
    O74      O        0.43817    0.58530    0.48226    1.000
    O75      O        0.34847    0.16600    0.47023    1.000
    O76      O        0.31858    0.94730    0.38321    1.000
    O77      O        0.36825    0.08170    0.28140    1.000
    O78      O        0.33887    0.52730    0.67798    1.000
    P16      P        0.46217    0.67368    0.42215    1.000
    P17      P        0.27585    0.54093    0.34827    1.000
    P18      P        0.34726    0.36545    0.63429    1.000
    C13      C        0.15688    0.58540    0.09499    1.000
    C14      C        0.12966    0.66620    0.15494    1.000
    Ga13     Ga       0.16119    0.34223    0.21148    1.000
    Ga14     Ga       0.10343    0.88411    0.01524    1.000
    H25      H        0.03620    0.05700    0.13800    1.000
    H26      H        0.26400    0.14800    0.14600    1.000
    H27      H        0.20700    0.84000    0.92900    1.000
    H28      H        0.16530    0.00700    0.78900    1.000
    O79      O        0.13498    0.72430    0.80273    1.000
    O80      O        0.10490    0.90230    0.90196    1.000
    O81      O        0.25834    0.89470    0.20480    1.000
    O82      O        0.18264    0.99100    0.06160    1.000
    O83      O        0.97251    0.23840    0.03099    1.000
    O84      O        0.07846    0.31460    0.12644    1.000
    O85      O        0.10801    0.80720    0.13627    1.000
    O86      O        0.18869    0.12650    0.19915    1.000
    O87      O        0.06183    0.08530    0.01774    1.000
    O88      O        0.15153    0.66600    0.02977    1.000
    O89      O        0.18142    0.44730    0.11679    1.000
    O90      O        0.13175    0.58170    0.21860    1.000
    O91      O        0.16113    0.02730    0.82202    1.000
    P19      P        0.03783    0.17368    0.07785    1.000
    P20      P        0.22415    0.04093    0.15173    1.000
    P21      P        0.15274    0.86545    0.86571    1.000
    C15      C        0.65688    0.08540    0.09499    1.000
    C16      C        0.62966    0.16620    0.15494    1.000
    Ga15     Ga       0.66119    0.84223    0.21148    1.000
    Ga16     Ga       0.60343    0.38411    0.01524    1.000
    H29      H        0.53620    0.55700    0.13800    1.000
    H30      H        0.76400    0.64800    0.14600    1.000
    H31      H        0.70700    0.34000    0.92900    1.000
    H32      H        0.66530    0.50700    0.78900    1.000
    O92      O        0.63498    0.22430    0.80273    1.000
    O93      O        0.60490    0.40230    0.90196    1.000
    O94      O        0.75834    0.39470    0.20480    1.000
    O95      O        0.68264    0.49100    0.06160    1.000
    O96      O        0.47251    0.73840    0.03099    1.000
    O97      O        0.57846    0.81460    0.12644    1.000
    O98      O        0.60801    0.30720    0.13627    1.000
    O99      O        0.68869    0.62650    0.19915    1.000
    O100     O        0.56183    0.58530    0.01774    1.000
    O101     O        0.65153    0.16600    0.02977    1.000
    O102     O        0.68142    0.94730    0.11679    1.000
    O103     O        0.63175    0.08170    0.21860    1.000
    O104     O        0.66113    0.52730    0.82202    1.000
    P22      P        0.53783    0.67368    0.07785    1.000
    P23      P        0.72415    0.54093    0.15173    1.000
    P24      P        0.65274    0.36545    0.86571    1.000
