# CIF file generated by openbabel 3.1.0, see https://openbabel.org
data_I
_chemical_name_common 'OKIKAV_charged'
_cell_length_a 9.8704
_cell_length_b 12.1381
_cell_length_c 26.39
_cell_angle_alpha 90
_cell_angle_beta 90
_cell_angle_gamma 90
_space_group_name_H-M_alt 'P 1'
_space_group_name_Hall 'P 1'
loop_
    _symmetry_equiv_pos_as_xyz
    x,y,z
loop_
    _atom_site_label
    _atom_site_type_symbol
    _atom_site_fract_x
    _atom_site_fract_y
    _atom_site_fract_z
    _atom_site_occupancy
    Ag1      Ag       0.71048    0.00260    0.98936    1.000
    Ag2      Ag       0.28952    0.00260    0.01064    1.000
    Ag3      Ag       0.71048    0.50260    0.51064    1.000
    Ag4      Ag       0.28952    0.50260    0.48936    1.000
    H1       H        0.80810    0.13940    0.17550    1.000
    H2       H        0.81000    0.14290    0.26290    1.000
    H3       H        0.71380    0.82680    0.26790    1.000
    H4       H        0.71850    0.82020    0.17970    1.000
    H5       H        0.53390    0.06500    0.30430    1.000
    H6       H        0.40890    0.19770    0.34040    1.000
    H7       H        0.68940    0.21780    0.45390    1.000
    H8       H        0.81380    0.08620    0.41130    1.000
    H9       H        0.70820    0.88260    0.41170    1.000
    H10      H        0.82990    0.75020    0.45290    1.000
    H11      H        0.12040    0.76060    0.34810    1.000
    H12      H        0.00090    0.90380    0.30570    1.000
    H13      H        0.19190    0.13940    0.82450    1.000
    H14      H        0.19000    0.14290    0.73710    1.000
    H15      H        0.28620    0.82680    0.73210    1.000
    H16      H        0.28150    0.82020    0.82030    1.000
    H17      H        0.46610    0.06500    0.69570    1.000
    H18      H        0.59110    0.19770    0.65960    1.000
    H19      H        0.31060    0.21780    0.54610    1.000
    H20      H        0.18620    0.08620    0.58870    1.000
    H21      H        0.29180    0.88260    0.58830    1.000
    H22      H        0.17010    0.75020    0.54710    1.000
    H23      H        0.87960    0.76060    0.65190    1.000
    H24      H        0.99910    0.90380    0.69430    1.000
    H25      H        0.80810    0.63940    0.32450    1.000
    H26      H        0.81000    0.64290    0.23710    1.000
    H27      H        0.71380    0.32680    0.23210    1.000
    H28      H        0.71850    0.32020    0.32030    1.000
    H29      H        0.53390    0.56500    0.19570    1.000
    H30      H        0.40890    0.69770    0.15960    1.000
    H31      H        0.68940    0.71780    0.04610    1.000
    H32      H        0.81380    0.58620    0.08870    1.000
    H33      H        0.70820    0.38260    0.08830    1.000
    H34      H        0.82990    0.25020    0.04710    1.000
    H35      H        0.12040    0.26060    0.15190    1.000
    H36      H        0.00090    0.40380    0.19430    1.000
    H37      H        0.19190    0.63940    0.67550    1.000
    H38      H        0.19000    0.64290    0.76290    1.000
    H39      H        0.28620    0.32680    0.76790    1.000
    H40      H        0.28150    0.32020    0.67970    1.000
    H41      H        0.46610    0.56500    0.80430    1.000
    H42      H        0.59110    0.69770    0.84040    1.000
    H43      H        0.31060    0.71780    0.95390    1.000
    H44      H        0.18620    0.58620    0.91130    1.000
    H45      H        0.29180    0.38260    0.91170    1.000
    H46      H        0.17010    0.25020    0.95290    1.000
    H47      H        0.87960    0.26060    0.84810    1.000
    H48      H        0.99910    0.40380    0.80570    1.000
    C1       C        0.75240    0.98060    0.11420    1.000
    C2       C        0.76130    0.98050    0.16950    1.000
    C3       C        0.78970    0.07570    0.19380    1.000
    C4       C        0.79120    0.07750    0.24600    1.000
    C5       C        0.76510    0.98360    0.27310    1.000
    C6       C        0.73500    0.88960    0.24930    1.000
    C7       C        0.73550    0.88600    0.19650    1.000
    C8       C        0.68510    0.06560    0.35380    1.000
    C9       C        0.56440    0.09790    0.33400    1.000
    C10      C        0.48900    0.17460    0.35570    1.000
    C11      C        0.53300    0.22320    0.40430    1.000
    C12      C        0.45190    0.29880    0.42980    1.000
    C13      C        0.65680    0.18830    0.42380    1.000
    C14      C        0.73120    0.10950    0.39810    1.000
    C15      C        0.84140    0.90510    0.35370    1.000
    C16      C        0.79090    0.85920    0.39870    1.000
    C17      C        0.86330    0.78060    0.42300    1.000
    C18      C        0.98630    0.74530    0.40390    1.000
    C19      C        0.03860    0.78670    0.36080    1.000
    C20      C        0.96550    0.87170    0.33480    1.000
    C21      C        0.07080    0.66640    0.43370    1.000
    C22      C        0.24760    0.98060    0.88580    1.000
    C23      C        0.23870    0.98050    0.83050    1.000
    C24      C        0.21030    0.07570    0.80620    1.000
    C25      C        0.20880    0.07750    0.75400    1.000
    C26      C        0.23490    0.98360    0.72690    1.000
    C27      C        0.26500    0.88960    0.75070    1.000
    C28      C        0.26450    0.88600    0.80350    1.000
    C29      C        0.31490    0.06560    0.64620    1.000
    C30      C        0.43560    0.09790    0.66600    1.000
    C31      C        0.51100    0.17460    0.64430    1.000
    C32      C        0.46700    0.22320    0.59570    1.000
    C33      C        0.54810    0.29880    0.57020    1.000
    C34      C        0.34320    0.18830    0.57620    1.000
    C35      C        0.26880    0.10950    0.60190    1.000
    C36      C        0.15860    0.90510    0.64630    1.000
    C37      C        0.20910    0.85920    0.60130    1.000
    C38      C        0.13670    0.78060    0.57700    1.000
    C39      C        0.01370    0.74530    0.59610    1.000
    C40      C        0.96140    0.78670    0.63920    1.000
    C41      C        0.03450    0.87170    0.66520    1.000
    C42      C        0.92920    0.66640    0.56630    1.000
    C43      C        0.75240    0.48060    0.38580    1.000
    C44      C        0.76130    0.48050    0.33050    1.000
    C45      C        0.78970    0.57570    0.30620    1.000
    C46      C        0.79120    0.57750    0.25400    1.000
    C47      C        0.76510    0.48360    0.22690    1.000
    C48      C        0.73500    0.38960    0.25070    1.000
    C49      C        0.73550    0.38600    0.30350    1.000
    C50      C        0.68510    0.56560    0.14620    1.000
    C51      C        0.56440    0.59790    0.16600    1.000
    C52      C        0.48900    0.67460    0.14430    1.000
    C53      C        0.53300    0.72320    0.09570    1.000
    C54      C        0.45190    0.79880    0.07020    1.000
    C55      C        0.65680    0.68830    0.07620    1.000
    C56      C        0.73120    0.60950    0.10190    1.000
    C57      C        0.84140    0.40510    0.14630    1.000
    C58      C        0.79090    0.35920    0.10130    1.000
    C59      C        0.86330    0.28060    0.07700    1.000
    C60      C        0.98630    0.24530    0.09610    1.000
    C61      C        0.03860    0.28670    0.13920    1.000
    C62      C        0.96550    0.37170    0.16520    1.000
    C63      C        0.07080    0.16640    0.06630    1.000
    C64      C        0.24760    0.48060    0.61420    1.000
    C65      C        0.23870    0.48050    0.66950    1.000
    C66      C        0.21030    0.57570    0.69380    1.000
    C67      C        0.20880    0.57750    0.74600    1.000
    C68      C        0.23490    0.48360    0.77310    1.000
    C69      C        0.26500    0.38960    0.74930    1.000
    C70      C        0.26450    0.38600    0.69650    1.000
    C71      C        0.31490    0.56560    0.85380    1.000
    C72      C        0.43560    0.59790    0.83400    1.000
    C73      C        0.51100    0.67460    0.85570    1.000
    C74      C        0.46700    0.72320    0.90430    1.000
    C75      C        0.54810    0.79880    0.92980    1.000
    C76      C        0.34320    0.68830    0.92380    1.000
    C77      C        0.26880    0.60950    0.89810    1.000
    C78      C        0.15860    0.40510    0.85370    1.000
    C79      C        0.20910    0.35920    0.89870    1.000
    C80      C        0.13670    0.28060    0.92300    1.000
    C81      C        0.01370    0.24530    0.90390    1.000
    C82      C        0.96140    0.28670    0.86080    1.000
    C83      C        0.03450    0.37170    0.83480    1.000
    C84      C        0.92920    0.16640    0.93370    1.000
    N1       N        0.75240    0.97580    0.07210    1.000
    N2       N        0.38800    0.36220    0.45060    1.000
    N3       N        0.13050    0.60550    0.45390    1.000
    N4       N        0.76760    0.98650    0.32770    1.000
    N5       N        0.24760    0.97580    0.92790    1.000
    N6       N        0.61200    0.36220    0.54940    1.000
    N7       N        0.86950    0.60550    0.54610    1.000
    N8       N        0.23240    0.98650    0.67230    1.000
    N9       N        0.75240    0.47580    0.42790    1.000
    N10      N        0.38800    0.86220    0.04940    1.000
    N11      N        0.13050    0.10550    0.04610    1.000
    N12      N        0.76760    0.48650    0.17230    1.000
    N13      N        0.24760    0.47580    0.57210    1.000
    N14      N        0.61200    0.86220    0.95060    1.000
    N15      N        0.86950    0.10550    0.95390    1.000
    N16      N        0.23240    0.48650    0.82770    1.000
    Cl1      Cl       0.46150    0.22280    0.13710    1.000
    O1       O        0.33610    0.16750    0.14420    1.000
    O2       O        0.52700    0.23900    0.18600    1.000
    O3       O        0.43800    0.33030    0.11520    1.000
    O4       O        0.55100    0.16050    0.10580    1.000
    Cl2      Cl       0.53850    0.22280    0.86290    1.000
    O5       O        0.66390    0.16750    0.85580    1.000
    O6       O        0.47300    0.23900    0.81400    1.000
    O7       O        0.56200    0.33030    0.88480    1.000
    O8       O        0.44900    0.16050    0.89420    1.000
    Cl3      Cl       0.46150    0.72280    0.36290    1.000
    O9       O        0.33610    0.66750    0.35580    1.000
    O10      O        0.52700    0.73900    0.31400    1.000
    O11      O        0.43800    0.83030    0.38480    1.000
    O12      O        0.55100    0.66050    0.39420    1.000
    Cl4      Cl       0.53850    0.72280    0.63710    1.000
    O13      O        0.66390    0.66750    0.64420    1.000
    O14      O        0.47300    0.73900    0.68600    1.000
    O15      O        0.56200    0.83030    0.61520    1.000
    O16      O        0.44900    0.66050    0.60580    1.000
