# CIF file generated by openbabel 3.1.0, see https://openbabel.org
data_I
_chemical_name_common 'image0'
_cell_length_a 21.9943
_cell_length_b 16.5773
_cell_length_c 25.558
_cell_angle_alpha 90
_cell_angle_beta 115.203
_cell_angle_gamma 90
_space_group_name_H-M_alt 'P 1'
_space_group_name_Hall 'P 1'
loop_
    _symmetry_equiv_pos_as_xyz
    x,y,z
loop_
    _atom_site_label
    _atom_site_type_symbol
    _atom_site_fract_x
    _atom_site_fract_y
    _atom_site_fract_z
    _atom_site_occupancy
    Ag1      Ag       0.84427    0.45714    0.36730    1.000
    Ag2      Ag       0.82228    0.75492    0.86677    1.000
    C1       C        0.09780    0.97080    0.99960    1.000
    C2       C        0.79750    0.58410    0.50420    1.000
    H1       H        0.81970    0.58820    0.54420    1.000
    C3       C        0.00340    0.88460    0.99520    1.000
    H2       H        0.02290    0.88340    0.03540    1.000
    C4       C        0.27730    0.13780    0.00860    1.000
    H3       H        0.29830    0.13380    0.04870    1.000
    C5       C        0.18170    0.05220    0.00570    1.000
    C6       C        0.70980    0.72640    0.58640    1.000
    C7       C        0.55980    0.80140    0.46830    1.000
    C8       C        0.53300    0.81120    0.41020    1.000
    H4       H        0.55460    0.79010    0.38900    1.000
    C9       C        0.62330    0.75630    0.50090    1.000
    C10      C        0.94400    0.84410    0.96350    1.000
    H5       H        0.92420    0.81550    0.98350    1.000
    C11      C        0.03310    0.92720    0.96540    1.000
    C12      C        0.21990    0.15320    0.89110    1.000
    H6       H        0.20020    0.15810    0.85110    1.000
    C13      C        0.17910    0.95630    0.18000    1.000
    H7       H        0.13500    0.93880    0.15990    1.000
    C14      C        0.73540    0.56440    0.38770    1.000
    H8       H        0.71380    0.55750    0.34780    1.000
    C15      C        0.74320    0.73690    0.65050    1.000
    C16      C        0.18010    0.00200    0.08660    1.000
    C17      C        0.21490    0.10130    0.97680    1.000
    C18      C        0.73570    0.62100    0.47370    1.000
    C19      C        0.52560    0.83560    0.49800    1.000
    H9       H        0.54310    0.83190    0.53810    1.000
    C20      C        0.21220    0.99200    0.15110    1.000
    C21      C        0.18590    0.11070    0.91730    1.000
    H10      H        0.14390    0.08860    0.89500    1.000
    C22      C        0.70400    0.60930    0.41420    1.000
    H11      H        0.66190    0.63160    0.39250    1.000
    C23      C        0.30730    0.18050    0.97850    1.000
    H12      H        0.34850    0.20540    0.99960    1.000
    C24      C        0.70500    0.67210    0.50380    1.000
    C25      C        0.47320    0.85290    0.38270    1.000
    H13      H        0.45590    0.86040    0.34290    1.000
    C26      C        0.82510    0.54110    0.47340    1.000
    H14      H        0.86720    0.51810    0.49390    1.000
    C27      C        0.46680    0.87420    0.46780    1.000
    H15      H        0.44440    0.89600    0.48820    1.000
    C28      C        0.00200    0.92760    0.90590    1.000
    H16      H        0.01980    0.95700    0.88470    1.000
    C29      C        0.30670    0.00530    0.24140    1.000
    H17      H        0.35080    0.02250    0.26220    1.000
    C30      C        0.94400    0.88370    0.87860    1.000
    H18      H        0.92470    0.88190    0.83840    1.000
    C31      C        0.21170    0.94660    0.23920    1.000
    H19      H        0.18880    0.92190    0.25830    1.000
    C32      C        0.71490    0.78820    0.67710    1.000
    H20      H        0.67630    0.81750    0.65530    1.000
    C33      C        0.74540    0.79460    0.73640    1.000
    H21      H        0.72630    0.82880    0.75410    1.000
    C34      C        0.27760    0.01630    0.18180    1.000
    H22      H        0.30160    0.03950    0.16330    1.000
    C35      C        0.82830    0.70890    0.74330    1.000
    H23      H        0.86780    0.68170    0.76590    1.000
    C36      C        0.80220    0.69940    0.68410    1.000
    H24      H        0.82430    0.66810    0.66740    1.000
    N1       N        0.79560    0.53040    0.41670    1.000
    N2       N        0.43940    0.88270    0.41100    1.000
    N3       N        0.80080    0.75430    0.76970    1.000
    N4       N        0.73780    0.67730    0.56180    1.000
    N5       N        0.64780    0.71000    0.47120    1.000
    N6       N        0.65250    0.76660    0.55800    1.000
    N7       N        0.91350    0.84360    0.90590    1.000
    N8       N        0.27530    0.97150    0.27030    1.000
    N9       N        0.27970    0.18710    0.92130    1.000
    N10      N        0.12570    0.01270    0.97180    1.000
    N11      N        0.12290    0.96320    0.05770    1.000
    N12      N        0.21110    0.04980    0.06360    1.000
    Ag3      Ag       0.34427    0.95714    0.36730    1.000
    Ag4      Ag       0.32228    0.25492    0.86677    1.000
    C37      C        0.59780    0.47080    0.99960    1.000
    C38      C        0.29750    0.08410    0.50420    1.000
    H25      H        0.31970    0.08820    0.54420    1.000
    C39      C        0.50340    0.38460    0.99520    1.000
    H26      H        0.52290    0.38340    0.03540    1.000
    C40      C        0.77730    0.63780    0.00860    1.000
    H27      H        0.79830    0.63380    0.04870    1.000
    C41      C        0.68170    0.55220    0.00570    1.000
    C42      C        0.20980    0.22640    0.58640    1.000
    C43      C        0.05980    0.30140    0.46830    1.000
    C44      C        0.03300    0.31120    0.41020    1.000
    H28      H        0.05460    0.29010    0.38900    1.000
    C45      C        0.12330    0.25630    0.50090    1.000
    C46      C        0.44400    0.34410    0.96350    1.000
    H29      H        0.42420    0.31550    0.98350    1.000
    C47      C        0.53310    0.42720    0.96540    1.000
    C48      C        0.71990    0.65320    0.89110    1.000
    H30      H        0.70020    0.65810    0.85110    1.000
    C49      C        0.67910    0.45630    0.18000    1.000
    H31      H        0.63500    0.43880    0.15990    1.000
    C50      C        0.23540    0.06440    0.38770    1.000
    H32      H        0.21380    0.05750    0.34780    1.000
    C51      C        0.24320    0.23690    0.65050    1.000
    C52      C        0.68010    0.50200    0.08660    1.000
    C53      C        0.71490    0.60130    0.97680    1.000
    C54      C        0.23570    0.12100    0.47370    1.000
    C55      C        0.02560    0.33560    0.49800    1.000
    H33      H        0.04310    0.33190    0.53810    1.000
    C56      C        0.71220    0.49200    0.15110    1.000
    C57      C        0.68590    0.61070    0.91730    1.000
    H34      H        0.64390    0.58860    0.89500    1.000
    C58      C        0.20400    0.10930    0.41420    1.000
    H35      H        0.16190    0.13160    0.39250    1.000
    C59      C        0.80730    0.68050    0.97850    1.000
    H36      H        0.84850    0.70540    0.99960    1.000
    C60      C        0.20500    0.17210    0.50380    1.000
    C61      C        0.97320    0.35290    0.38270    1.000
    H37      H        0.95590    0.36040    0.34290    1.000
    C62      C        0.32510    0.04110    0.47340    1.000
    H38      H        0.36720    0.01810    0.49390    1.000
    C63      C        0.96680    0.37420    0.46780    1.000
    H39      H        0.94440    0.39600    0.48820    1.000
    C64      C        0.50200    0.42760    0.90590    1.000
    H40      H        0.51980    0.45700    0.88470    1.000
    C65      C        0.80670    0.50530    0.24140    1.000
    H41      H        0.85080    0.52250    0.26220    1.000
    C66      C        0.44400    0.38370    0.87860    1.000
    H42      H        0.42470    0.38190    0.83840    1.000
    C67      C        0.71170    0.44660    0.23920    1.000
    H43      H        0.68880    0.42190    0.25830    1.000
    C68      C        0.21490    0.28820    0.67710    1.000
    H44      H        0.17630    0.31750    0.65530    1.000
    C69      C        0.24540    0.29460    0.73640    1.000
    H45      H        0.22630    0.32880    0.75410    1.000
    C70      C        0.77760    0.51630    0.18180    1.000
    H46      H        0.80160    0.53950    0.16330    1.000
    C71      C        0.32830    0.20890    0.74330    1.000
    H47      H        0.36780    0.18170    0.76590    1.000
    C72      C        0.30220    0.19940    0.68410    1.000
    H48      H        0.32430    0.16810    0.66740    1.000
    N13      N        0.29560    0.03040    0.41670    1.000
    N14      N        0.93940    0.38270    0.41100    1.000
    N15      N        0.30080    0.25430    0.76970    1.000
    N16      N        0.23780    0.17730    0.56180    1.000
    N17      N        0.14780    0.21000    0.47120    1.000
    N18      N        0.15250    0.26660    0.55800    1.000
    N19      N        0.41350    0.34360    0.90590    1.000
    N20      N        0.77530    0.47150    0.27030    1.000
    N21      N        0.77970    0.68710    0.92130    1.000
    N22      N        0.62570    0.51270    0.97180    1.000
    N23      N        0.62290    0.46320    0.05770    1.000
    N24      N        0.71110    0.54980    0.06360    1.000
    Ag5      Ag       0.15573    0.45714    0.13270    1.000
    Ag6      Ag       0.17772    0.75492    0.63323    1.000
    C73      C        0.90220    0.97080    0.50040    1.000
    C74      C        0.20250    0.58410    0.99580    1.000
    H49      H        0.18030    0.58820    0.95580    1.000
    C75      C        0.99660    0.88460    0.50480    1.000
    H50      H        0.97710    0.88340    0.46460    1.000
    C76      C        0.72270    0.13780    0.49140    1.000
    H51      H        0.70170    0.13380    0.45130    1.000
    C77      C        0.81830    0.05220    0.49430    1.000
    C78      C        0.29020    0.72640    0.91360    1.000
    C79      C        0.44020    0.80140    0.03170    1.000
    C80      C        0.46700    0.81120    0.08980    1.000
    H52      H        0.44540    0.79010    0.11100    1.000
    C81      C        0.37670    0.75630    0.99910    1.000
    C82      C        0.05600    0.84410    0.53650    1.000
    H53      H        0.07580    0.81550    0.51650    1.000
    C83      C        0.96690    0.92720    0.53460    1.000
    C84      C        0.78010    0.15320    0.60890    1.000
    H54      H        0.79980    0.15810    0.64890    1.000
    C85      C        0.82090    0.95630    0.32000    1.000
    H55      H        0.86500    0.93880    0.34010    1.000
    C86      C        0.26460    0.56440    0.11230    1.000
    H56      H        0.28620    0.55750    0.15220    1.000
    C87      C        0.25680    0.73690    0.84950    1.000
    C88      C        0.81990    0.00200    0.41340    1.000
    C89      C        0.78510    0.10130    0.52320    1.000
    C90      C        0.26430    0.62100    0.02630    1.000
    C91      C        0.47440    0.83560    0.00200    1.000
    H57      H        0.45690    0.83190    0.96190    1.000
    C92      C        0.78780    0.99200    0.34890    1.000
    C93      C        0.81410    0.11070    0.58270    1.000
    H58      H        0.85610    0.08860    0.60500    1.000
    C94      C        0.29600    0.60930    0.08580    1.000
    H59      H        0.33810    0.63160    0.10750    1.000
    C95      C        0.69270    0.18050    0.52150    1.000
    H60      H        0.65150    0.20540    0.50040    1.000
    C96      C        0.29500    0.67210    0.99620    1.000
    C97      C        0.52680    0.85290    0.11730    1.000
    H61      H        0.54410    0.86040    0.15710    1.000
    C98      C        0.17490    0.54110    0.02660    1.000
    H62      H        0.13280    0.51810    0.00610    1.000
    C99      C        0.53320    0.87420    0.03220    1.000
    H63      H        0.55560    0.89600    0.01180    1.000
    C100     C        0.99800    0.92760    0.59410    1.000
    H64      H        0.98020    0.95700    0.61530    1.000
    C101     C        0.69330    0.00530    0.25860    1.000
    H65      H        0.64920    0.02250    0.23780    1.000
    C102     C        0.05600    0.88370    0.62140    1.000
    H66      H        0.07530    0.88190    0.66160    1.000
    C103     C        0.78830    0.94660    0.26080    1.000
    H67      H        0.81120    0.92190    0.24170    1.000
    C104     C        0.28510    0.78820    0.82290    1.000
    H68      H        0.32370    0.81750    0.84470    1.000
    C105     C        0.25460    0.79460    0.76360    1.000
    H69      H        0.27370    0.82880    0.74590    1.000
    C106     C        0.72240    0.01630    0.31820    1.000
    H70      H        0.69840    0.03950    0.33670    1.000
    C107     C        0.17170    0.70890    0.75670    1.000
    H71      H        0.13220    0.68170    0.73410    1.000
    C108     C        0.19780    0.69940    0.81590    1.000
    H72      H        0.17570    0.66810    0.83260    1.000
    N25      N        0.20440    0.53040    0.08330    1.000
    N26      N        0.56060    0.88270    0.08900    1.000
    N27      N        0.19920    0.75430    0.73030    1.000
    N28      N        0.26220    0.67730    0.93820    1.000
    N29      N        0.35220    0.71000    0.02880    1.000
    N30      N        0.34750    0.76660    0.94200    1.000
    N31      N        0.08650    0.84360    0.59410    1.000
    N32      N        0.72470    0.97150    0.22970    1.000
    N33      N        0.72030    0.18710    0.57870    1.000
    N34      N        0.87430    0.01270    0.52820    1.000
    N35      N        0.87710    0.96320    0.44230    1.000
    N36      N        0.78890    0.04980    0.43640    1.000
    Ag7      Ag       0.65573    0.95714    0.13270    1.000
    Ag8      Ag       0.67772    0.25492    0.63323    1.000
    C109     C        0.40220    0.47080    0.50040    1.000
    C110     C        0.70250    0.08410    0.99580    1.000
    H73      H        0.68030    0.08820    0.95580    1.000
    C111     C        0.49660    0.38460    0.50480    1.000
    H74      H        0.47710    0.38340    0.46460    1.000
    C112     C        0.22270    0.63780    0.49140    1.000
    H75      H        0.20170    0.63380    0.45130    1.000
    C113     C        0.31830    0.55220    0.49430    1.000
    C114     C        0.79020    0.22640    0.91360    1.000
    C115     C        0.94020    0.30140    0.03170    1.000
    C116     C        0.96700    0.31120    0.08980    1.000
    H76      H        0.94540    0.29010    0.11100    1.000
    C117     C        0.87670    0.25630    0.99910    1.000
    C118     C        0.55600    0.34410    0.53650    1.000
    H77      H        0.57580    0.31550    0.51650    1.000
    C119     C        0.46690    0.42720    0.53460    1.000
    C120     C        0.28010    0.65320    0.60890    1.000
    H78      H        0.29980    0.65810    0.64890    1.000
    C121     C        0.32090    0.45630    0.32000    1.000
    H79      H        0.36500    0.43880    0.34010    1.000
    C122     C        0.76460    0.06440    0.11230    1.000
    H80      H        0.78620    0.05750    0.15220    1.000
    C123     C        0.75680    0.23690    0.84950    1.000
    C124     C        0.31990    0.50200    0.41340    1.000
    C125     C        0.28510    0.60130    0.52320    1.000
    C126     C        0.76430    0.12100    0.02630    1.000
    C127     C        0.97440    0.33560    0.00200    1.000
    H81      H        0.95690    0.33190    0.96190    1.000
    C128     C        0.28780    0.49200    0.34890    1.000
    C129     C        0.31410    0.61070    0.58270    1.000
    H82      H        0.35610    0.58860    0.60500    1.000
    C130     C        0.79600    0.10930    0.08580    1.000
    H83      H        0.83810    0.13160    0.10750    1.000
    C131     C        0.19270    0.68050    0.52150    1.000
    H84      H        0.15150    0.70540    0.50040    1.000
    C132     C        0.79500    0.17210    0.99620    1.000
    C133     C        0.02680    0.35290    0.11730    1.000
    H85      H        0.04410    0.36040    0.15710    1.000
    C134     C        0.67490    0.04110    0.02660    1.000
    H86      H        0.63280    0.01810    0.00610    1.000
    C135     C        0.03320    0.37420    0.03220    1.000
    H87      H        0.05560    0.39600    0.01180    1.000
    C136     C        0.49800    0.42760    0.59410    1.000
    H88      H        0.48020    0.45700    0.61530    1.000
    C137     C        0.19330    0.50530    0.25860    1.000
    H89      H        0.14920    0.52250    0.23780    1.000
    C138     C        0.55600    0.38370    0.62140    1.000
    H90      H        0.57530    0.38190    0.66160    1.000
    C139     C        0.28830    0.44660    0.26080    1.000
    H91      H        0.31120    0.42190    0.24170    1.000
    C140     C        0.78510    0.28820    0.82290    1.000
    H92      H        0.82370    0.31750    0.84470    1.000
    C141     C        0.75460    0.29460    0.76360    1.000
    H93      H        0.77370    0.32880    0.74590    1.000
    C142     C        0.22240    0.51630    0.31820    1.000
    H94      H        0.19840    0.53950    0.33670    1.000
    C143     C        0.67170    0.20890    0.75670    1.000
    H95      H        0.63220    0.18170    0.73410    1.000
    C144     C        0.69780    0.19940    0.81590    1.000
    H96      H        0.67570    0.16810    0.83260    1.000
    N37      N        0.70440    0.03040    0.08330    1.000
    N38      N        0.06060    0.38270    0.08900    1.000
    N39      N        0.69920    0.25430    0.73030    1.000
    N40      N        0.76220    0.17730    0.93820    1.000
    N41      N        0.85220    0.21000    0.02880    1.000
    N42      N        0.84750    0.26660    0.94200    1.000
    N43      N        0.58650    0.34360    0.59410    1.000
    N44      N        0.22470    0.47150    0.22970    1.000
    N45      N        0.22030    0.68710    0.57870    1.000
    N46      N        0.37430    0.51270    0.52820    1.000
    N47      N        0.37710    0.46320    0.44230    1.000
    N48      N        0.28890    0.54980    0.43640    1.000
    Ag9      Ag       0.15573    0.54286    0.63270    1.000
    Ag10     Ag       0.17772    0.24508    0.13323    1.000
    C145     C        0.90220    0.02920    0.00040    1.000
    C146     C        0.20250    0.41590    0.49580    1.000
    H97      H        0.18030    0.41180    0.45580    1.000
    C147     C        0.99660    0.11540    0.00480    1.000
    H98      H        0.97710    0.11660    0.96460    1.000
    C148     C        0.72270    0.86220    0.99140    1.000
    H99      H        0.70170    0.86620    0.95130    1.000
    C149     C        0.81830    0.94780    0.99430    1.000
    C150     C        0.29020    0.27360    0.41360    1.000
    C151     C        0.44020    0.19860    0.53170    1.000
    C152     C        0.46700    0.18880    0.58980    1.000
    H100     H        0.44540    0.20990    0.61100    1.000
    C153     C        0.37670    0.24370    0.49910    1.000
    C154     C        0.05600    0.15590    0.03650    1.000
    H101     H        0.07580    0.18450    0.01650    1.000
    C155     C        0.96690    0.07280    0.03460    1.000
    C156     C        0.78010    0.84680    0.10890    1.000
    H102     H        0.79980    0.84190    0.14890    1.000
    C157     C        0.82090    0.04370    0.82000    1.000
    H103     H        0.86500    0.06120    0.84010    1.000
    C158     C        0.26460    0.43560    0.61230    1.000
    H104     H        0.28620    0.44250    0.65220    1.000
    C159     C        0.25680    0.26310    0.34950    1.000
    C160     C        0.81990    0.99800    0.91340    1.000
    C161     C        0.78510    0.89870    0.02320    1.000
    C162     C        0.26430    0.37900    0.52630    1.000
    C163     C        0.47440    0.16440    0.50200    1.000
    H105     H        0.45690    0.16810    0.46190    1.000
    C164     C        0.78780    0.00800    0.84890    1.000
    C165     C        0.81410    0.88930    0.08270    1.000
    H106     H        0.85610    0.91140    0.10500    1.000
    C166     C        0.29600    0.39070    0.58580    1.000
    H107     H        0.33810    0.36840    0.60750    1.000
    C167     C        0.69270    0.81950    0.02150    1.000
    H108     H        0.65150    0.79460    0.00040    1.000
    C168     C        0.29500    0.32790    0.49620    1.000
    C169     C        0.52680    0.14710    0.61730    1.000
    H109     H        0.54410    0.13960    0.65710    1.000
    C170     C        0.17490    0.45890    0.52660    1.000
    H110     H        0.13280    0.48190    0.50610    1.000
    C171     C        0.53320    0.12580    0.53220    1.000
    H111     H        0.55560    0.10400    0.51180    1.000
    C172     C        0.99800    0.07240    0.09410    1.000
    H112     H        0.98020    0.04300    0.11530    1.000
    C173     C        0.69330    0.99470    0.75860    1.000
    H113     H        0.64920    0.97750    0.73780    1.000
    C174     C        0.05600    0.11630    0.12140    1.000
    H114     H        0.07530    0.11810    0.16160    1.000
    C175     C        0.78830    0.05340    0.76080    1.000
    H115     H        0.81120    0.07810    0.74170    1.000
    C176     C        0.28510    0.21180    0.32290    1.000
    H116     H        0.32370    0.18250    0.34470    1.000
    C177     C        0.25460    0.20540    0.26360    1.000
    H117     H        0.27370    0.17120    0.24590    1.000
    C178     C        0.72240    0.98370    0.81820    1.000
    H118     H        0.69840    0.96050    0.83670    1.000
    C179     C        0.17170    0.29110    0.25670    1.000
    H119     H        0.13220    0.31830    0.23410    1.000
    C180     C        0.19780    0.30060    0.31590    1.000
    H120     H        0.17570    0.33190    0.33260    1.000
    N49      N        0.20440    0.46960    0.58330    1.000
    N50      N        0.56060    0.11730    0.58900    1.000
    N51      N        0.19920    0.24570    0.23030    1.000
    N52      N        0.26220    0.32270    0.43820    1.000
    N53      N        0.35220    0.29000    0.52880    1.000
    N54      N        0.34750    0.23340    0.44200    1.000
    N55      N        0.08650    0.15640    0.09410    1.000
    N56      N        0.72470    0.02850    0.72970    1.000
    N57      N        0.72030    0.81290    0.07870    1.000
    N58      N        0.87430    0.98730    0.02820    1.000
    N59      N        0.87710    0.03680    0.94230    1.000
    N60      N        0.78890    0.95020    0.93640    1.000
    Ag11     Ag       0.65573    0.04286    0.63270    1.000
    Ag12     Ag       0.67772    0.74508    0.13323    1.000
    C181     C        0.40220    0.52920    0.00040    1.000
    C182     C        0.70250    0.91590    0.49580    1.000
    H121     H        0.68030    0.91180    0.45580    1.000
    C183     C        0.49660    0.61540    0.00480    1.000
    H122     H        0.47710    0.61660    0.96460    1.000
    C184     C        0.22270    0.36220    0.99140    1.000
    H123     H        0.20170    0.36620    0.95130    1.000
    C185     C        0.31830    0.44780    0.99430    1.000
    C186     C        0.79020    0.77360    0.41360    1.000
    C187     C        0.94020    0.69860    0.53170    1.000
    C188     C        0.96700    0.68880    0.58980    1.000
    H124     H        0.94540    0.70990    0.61100    1.000
    C189     C        0.87670    0.74370    0.49910    1.000
    C190     C        0.55600    0.65590    0.03650    1.000
    H125     H        0.57580    0.68450    0.01650    1.000
    C191     C        0.46690    0.57280    0.03460    1.000
    C192     C        0.28010    0.34680    0.10890    1.000
    H126     H        0.29980    0.34190    0.14890    1.000
    C193     C        0.32090    0.54370    0.82000    1.000
    H127     H        0.36500    0.56120    0.84010    1.000
    C194     C        0.76460    0.93560    0.61230    1.000
    H128     H        0.78620    0.94250    0.65220    1.000
    C195     C        0.75680    0.76310    0.34950    1.000
    C196     C        0.31990    0.49800    0.91340    1.000
    C197     C        0.28510    0.39870    0.02320    1.000
    C198     C        0.76430    0.87900    0.52630    1.000
    C199     C        0.97440    0.66440    0.50200    1.000
    H129     H        0.95690    0.66810    0.46190    1.000
    C200     C        0.28780    0.50800    0.84890    1.000
    C201     C        0.31410    0.38930    0.08270    1.000
    H130     H        0.35610    0.41140    0.10500    1.000
    C202     C        0.79600    0.89070    0.58580    1.000
    H131     H        0.83810    0.86840    0.60750    1.000
    C203     C        0.19270    0.31950    0.02150    1.000
    H132     H        0.15150    0.29460    0.00040    1.000
    C204     C        0.79500    0.82790    0.49620    1.000
    C205     C        0.02680    0.64710    0.61730    1.000
    H133     H        0.04410    0.63960    0.65710    1.000
    C206     C        0.67490    0.95890    0.52660    1.000
    H134     H        0.63280    0.98190    0.50610    1.000
    C207     C        0.03320    0.62580    0.53220    1.000
    H135     H        0.05560    0.60400    0.51180    1.000
    C208     C        0.49800    0.57240    0.09410    1.000
    H136     H        0.48020    0.54300    0.11530    1.000
    C209     C        0.19330    0.49470    0.75860    1.000
    H137     H        0.14920    0.47750    0.73780    1.000
    C210     C        0.55600    0.61630    0.12140    1.000
    H138     H        0.57530    0.61810    0.16160    1.000
    C211     C        0.28830    0.55340    0.76080    1.000
    H139     H        0.31120    0.57810    0.74170    1.000
    C212     C        0.78510    0.71180    0.32290    1.000
    H140     H        0.82370    0.68250    0.34470    1.000
    C213     C        0.75460    0.70540    0.26360    1.000
    H141     H        0.77370    0.67120    0.24590    1.000
    C214     C        0.22240    0.48370    0.81820    1.000
    H142     H        0.19840    0.46050    0.83670    1.000
    C215     C        0.67170    0.79110    0.25670    1.000
    H143     H        0.63220    0.81830    0.23410    1.000
    C216     C        0.69780    0.80060    0.31590    1.000
    H144     H        0.67570    0.83190    0.33260    1.000
    N61      N        0.70440    0.96960    0.58330    1.000
    N62      N        0.06060    0.61730    0.58900    1.000
    N63      N        0.69920    0.74570    0.23030    1.000
    N64      N        0.76220    0.82270    0.43820    1.000
    N65      N        0.85220    0.79000    0.52880    1.000
    N66      N        0.84750    0.73340    0.44200    1.000
    N67      N        0.58650    0.65640    0.09410    1.000
    N68      N        0.22470    0.52850    0.72970    1.000
    N69      N        0.22030    0.31290    0.07870    1.000
    N70      N        0.37430    0.48730    0.02820    1.000
    N71      N        0.37710    0.53680    0.94230    1.000
    N72      N        0.28890    0.45020    0.93640    1.000
    Ag13     Ag       0.84427    0.54286    0.86730    1.000
    Ag14     Ag       0.82228    0.24508    0.36677    1.000
    C217     C        0.09780    0.02920    0.49960    1.000
    C218     C        0.79750    0.41590    0.00420    1.000
    H145     H        0.81970    0.41180    0.04420    1.000
    C219     C        0.00340    0.11540    0.49520    1.000
    H146     H        0.02290    0.11660    0.53540    1.000
    C220     C        0.27730    0.86220    0.50860    1.000
    H147     H        0.29830    0.86620    0.54870    1.000
    C221     C        0.18170    0.94780    0.50570    1.000
    C222     C        0.70980    0.27360    0.08640    1.000
    C223     C        0.55980    0.19860    0.96830    1.000
    C224     C        0.53300    0.18880    0.91020    1.000
    H148     H        0.55460    0.20990    0.88900    1.000
    C225     C        0.62330    0.24370    0.00090    1.000
    C226     C        0.94400    0.15590    0.46350    1.000
    H149     H        0.92420    0.18450    0.48350    1.000
    C227     C        0.03310    0.07280    0.46540    1.000
    C228     C        0.21990    0.84680    0.39110    1.000
    H150     H        0.20020    0.84190    0.35110    1.000
    C229     C        0.17910    0.04370    0.68000    1.000
    H151     H        0.13500    0.06120    0.65990    1.000
    C230     C        0.73540    0.43560    0.88770    1.000
    H152     H        0.71380    0.44250    0.84780    1.000
    C231     C        0.74320    0.26310    0.15050    1.000
    C232     C        0.18010    0.99800    0.58660    1.000
    C233     C        0.21490    0.89870    0.47680    1.000
    C234     C        0.73570    0.37900    0.97370    1.000
    C235     C        0.52560    0.16440    0.99800    1.000
    H153     H        0.54310    0.16810    0.03810    1.000
    C236     C        0.21220    0.00800    0.65110    1.000
    C237     C        0.18590    0.88930    0.41730    1.000
    H154     H        0.14390    0.91140    0.39500    1.000
    C238     C        0.70400    0.39070    0.91420    1.000
    H155     H        0.66190    0.36840    0.89250    1.000
    C239     C        0.30730    0.81950    0.47850    1.000
    H156     H        0.34850    0.79460    0.49960    1.000
    C240     C        0.70500    0.32790    0.00380    1.000
    C241     C        0.47320    0.14710    0.88270    1.000
    H157     H        0.45590    0.13960    0.84290    1.000
    C242     C        0.82510    0.45890    0.97340    1.000
    H158     H        0.86720    0.48190    0.99390    1.000
    C243     C        0.46680    0.12580    0.96780    1.000
    H159     H        0.44440    0.10400    0.98820    1.000
    C244     C        0.00200    0.07240    0.40590    1.000
    H160     H        0.01980    0.04300    0.38470    1.000
    C245     C        0.30670    0.99470    0.74140    1.000
    H161     H        0.35080    0.97750    0.76220    1.000
    C246     C        0.94400    0.11630    0.37860    1.000
    H162     H        0.92470    0.11810    0.33840    1.000
    C247     C        0.21170    0.05340    0.73920    1.000
    H163     H        0.18880    0.07810    0.75830    1.000
    C248     C        0.71490    0.21180    0.17710    1.000
    H164     H        0.67630    0.18250    0.15530    1.000
    C249     C        0.74540    0.20540    0.23640    1.000
    H165     H        0.72630    0.17120    0.25410    1.000
    C250     C        0.27760    0.98370    0.68180    1.000
    H166     H        0.30160    0.96050    0.66330    1.000
    C251     C        0.82830    0.29110    0.24330    1.000
    H167     H        0.86780    0.31830    0.26590    1.000
    C252     C        0.80220    0.30060    0.18410    1.000
    H168     H        0.82430    0.33190    0.16740    1.000
    N73      N        0.79560    0.46960    0.91670    1.000
    N74      N        0.43940    0.11730    0.91100    1.000
    N75      N        0.80080    0.24570    0.26970    1.000
    N76      N        0.73780    0.32270    0.06180    1.000
    N77      N        0.64780    0.29000    0.97120    1.000
    N78      N        0.65250    0.23340    0.05800    1.000
    N79      N        0.91350    0.15640    0.40590    1.000
    N80      N        0.27530    0.02850    0.77030    1.000
    N81      N        0.27970    0.81290    0.42130    1.000
    N82      N        0.12570    0.98730    0.47180    1.000
    N83      N        0.12290    0.03680    0.55770    1.000
    N84      N        0.21110    0.95020    0.56360    1.000
    Ag15     Ag       0.34427    0.04286    0.86730    1.000
    Ag16     Ag       0.32228    0.74508    0.36677    1.000
    C253     C        0.59780    0.52920    0.49960    1.000
    C254     C        0.29750    0.91590    0.00420    1.000
    H169     H        0.31970    0.91180    0.04420    1.000
    C255     C        0.50340    0.61540    0.49520    1.000
    H170     H        0.52290    0.61660    0.53540    1.000
    C256     C        0.77730    0.36220    0.50860    1.000
    H171     H        0.79830    0.36620    0.54870    1.000
    C257     C        0.68170    0.44780    0.50570    1.000
    C258     C        0.20980    0.77360    0.08640    1.000
    C259     C        0.05980    0.69860    0.96830    1.000
    C260     C        0.03300    0.68880    0.91020    1.000
    H172     H        0.05460    0.70990    0.88900    1.000
    C261     C        0.12330    0.74370    0.00090    1.000
    C262     C        0.44400    0.65590    0.46350    1.000
    H173     H        0.42420    0.68450    0.48350    1.000
    C263     C        0.53310    0.57280    0.46540    1.000
    C264     C        0.71990    0.34680    0.39110    1.000
    H174     H        0.70020    0.34190    0.35110    1.000
    C265     C        0.67910    0.54370    0.68000    1.000
    H175     H        0.63500    0.56120    0.65990    1.000
    C266     C        0.23540    0.93560    0.88770    1.000
    H176     H        0.21380    0.94250    0.84780    1.000
    C267     C        0.24320    0.76310    0.15050    1.000
    C268     C        0.68010    0.49800    0.58660    1.000
    C269     C        0.71490    0.39870    0.47680    1.000
    C270     C        0.23570    0.87900    0.97370    1.000
    C271     C        0.02560    0.66440    0.99800    1.000
    H177     H        0.04310    0.66810    0.03810    1.000
    C272     C        0.71220    0.50800    0.65110    1.000
    C273     C        0.68590    0.38930    0.41730    1.000
    H178     H        0.64390    0.41140    0.39500    1.000
    C274     C        0.20400    0.89070    0.91420    1.000
    H179     H        0.16190    0.86840    0.89250    1.000
    C275     C        0.80730    0.31950    0.47850    1.000
    H180     H        0.84850    0.29460    0.49960    1.000
    C276     C        0.20500    0.82790    0.00380    1.000
    C277     C        0.97320    0.64710    0.88270    1.000
    H181     H        0.95590    0.63960    0.84290    1.000
    C278     C        0.32510    0.95890    0.97340    1.000
    H182     H        0.36720    0.98190    0.99390    1.000
    C279     C        0.96680    0.62580    0.96780    1.000
    H183     H        0.94440    0.60400    0.98820    1.000
    C280     C        0.50200    0.57240    0.40590    1.000
    H184     H        0.51980    0.54300    0.38470    1.000
    C281     C        0.80670    0.49470    0.74140    1.000
    H185     H        0.85080    0.47750    0.76220    1.000
    C282     C        0.44400    0.61630    0.37860    1.000
    H186     H        0.42470    0.61810    0.33840    1.000
    C283     C        0.71170    0.55340    0.73920    1.000
    H187     H        0.68880    0.57810    0.75830    1.000
    C284     C        0.21490    0.71180    0.17710    1.000
    H188     H        0.17630    0.68250    0.15530    1.000
    C285     C        0.24540    0.70540    0.23640    1.000
    H189     H        0.22630    0.67120    0.25410    1.000
    C286     C        0.77760    0.48370    0.68180    1.000
    H190     H        0.80160    0.46050    0.66330    1.000
    C287     C        0.32830    0.79110    0.24330    1.000
    H191     H        0.36780    0.81830    0.26590    1.000
    C288     C        0.30220    0.80060    0.18410    1.000
    H192     H        0.32430    0.83190    0.16740    1.000
    N85      N        0.29560    0.96960    0.91670    1.000
    N86      N        0.93940    0.61730    0.91100    1.000
    N87      N        0.30080    0.74570    0.26970    1.000
    N88      N        0.23780    0.82270    0.06180    1.000
    N89      N        0.14780    0.79000    0.97120    1.000
    N90      N        0.15250    0.73340    0.05800    1.000
    N91      N        0.41350    0.65640    0.40590    1.000
    N92      N        0.77530    0.52850    0.77030    1.000
    N93      N        0.77970    0.31290    0.42130    1.000
    N94      N        0.62570    0.48730    0.47180    1.000
    N95      N        0.62290    0.53680    0.55770    1.000
    N96      N        0.71110    0.45020    0.56360    1.000
