# CIF file generated by openbabel 3.1.0, see https://openbabel.org
data_I
_chemical_name_common 'image0'
_cell_length_a 20.342
_cell_length_b 13.566
_cell_length_c 9.877
_cell_angle_alpha 90
_cell_angle_beta 90
_cell_angle_gamma 90
_space_group_name_H-M_alt 'P 1'
_space_group_name_Hall 'P 1'
loop_
    _symmetry_equiv_pos_as_xyz
    x,y,z
loop_
    _atom_site_label
    _atom_site_type_symbol
    _atom_site_fract_x
    _atom_site_fract_y
    _atom_site_fract_z
    _atom_site_occupancy
    Cu1      Cu       0.10350    0.09024    0.56060    1.000
    Cu2      Cu       0.22224    0.38658    0.82543    1.000
    S1       S        0.11327    0.11380    0.79460    1.000
    N1       N        0.18300    0.01480    0.47990    1.000
    C1       C        0.22050    0.97370    0.41830    1.000
    N2       N        0.97710    0.97890    0.48680    1.000
    C2       C        0.02290    0.02110    0.51320    1.000
    Cu3      Cu       0.39650    0.90976    0.06060    1.000
    Cu4      Cu       0.27776    0.61342    0.32543    1.000
    S2       S        0.38673    0.88620    0.29460    1.000
    N3       N        0.31700    0.98520    0.97990    1.000
    C3       C        0.27950    0.02630    0.91830    1.000
    N4       N        0.52290    0.02110    0.98680    1.000
    C4       C        0.47710    0.97890    0.01320    1.000
    Cu5      Cu       0.89650    0.59024    0.43940    1.000
    Cu6      Cu       0.77776    0.88658    0.17457    1.000
    S3       S        0.88673    0.61380    0.20540    1.000
    N5       N        0.81700    0.51480    0.52010    1.000
    C5       C        0.77950    0.47370    0.58170    1.000
    N6       N        0.02290    0.47890    0.51320    1.000
    C6       C        0.97710    0.52110    0.48680    1.000
    Cu7      Cu       0.60350    0.40976    0.93940    1.000
    Cu8      Cu       0.72224    0.11342    0.67457    1.000
    S4       S        0.61327    0.38620    0.70540    1.000
    N7       N        0.68300    0.48520    0.02010    1.000
    C7       C        0.72050    0.52630    0.08170    1.000
    N8       N        0.47710    0.52110    0.01320    1.000
    C8       C        0.52290    0.47890    0.98680    1.000
    Cu9      Cu       0.89650    0.90976    0.43940    1.000
    Cu10     Cu       0.77776    0.61342    0.17457    1.000
    S5       S        0.88673    0.88620    0.20540    1.000
    N9       N        0.81700    0.98520    0.52010    1.000
    C9       C        0.77950    0.02630    0.58170    1.000
    Cu11     Cu       0.60350    0.09024    0.93940    1.000
    Cu12     Cu       0.72224    0.38658    0.67457    1.000
    S6       S        0.61327    0.11380    0.70540    1.000
    N10      N        0.68300    0.01480    0.02010    1.000
    C10      C        0.72050    0.97370    0.08170    1.000
    Cu13     Cu       0.10350    0.40976    0.56060    1.000
    Cu14     Cu       0.22224    0.11342    0.82543    1.000
    S7       S        0.11327    0.38620    0.79460    1.000
    N11      N        0.18300    0.48520    0.47990    1.000
    C11      C        0.22050    0.52630    0.41830    1.000
    Cu15     Cu       0.39650    0.59024    0.06060    1.000
    Cu16     Cu       0.27776    0.88658    0.32543    1.000
    S8       S        0.38673    0.61380    0.29460    1.000
    N12      N        0.31700    0.51480    0.97990    1.000
    C12      C        0.27950    0.47370    0.91830    1.000
    W1       W        0.15276    0.25000    0.69610    1.000
    S9       S        0.26186    0.25000    0.72280    1.000
    S10      S        0.12480    0.25000    0.48090    1.000
    W2       W        0.34724    0.75000    0.19610    1.000
    S11      S        0.23814    0.75000    0.22280    1.000
    S12      S        0.37520    0.75000    0.98090    1.000
    W3       W        0.84724    0.75000    0.30390    1.000
    S13      S        0.73814    0.75000    0.27720    1.000
    S14      S        0.87520    0.75000    0.51910    1.000
    W4       W        0.65276    0.25000    0.80390    1.000
    S15      S        0.76186    0.25000    0.77720    1.000
    S16      S        0.62480    0.25000    0.01910    1.000
