# CIF file generated by openbabel 3.1.0, see https://openbabel.org
data_I
_chemical_name_common 'image0'
_cell_length_a 20.9112
_cell_length_b 20.9112
_cell_length_c 38.3502
_cell_angle_alpha 90
_cell_angle_beta 90
_cell_angle_gamma 120
_space_group_name_H-M_alt 'P 1'
_space_group_name_Hall 'P 1'
loop_
    _symmetry_equiv_pos_as_xyz
    x,y,z
loop_
    _atom_site_label
    _atom_site_type_symbol
    _atom_site_fract_x
    _atom_site_fract_y
    _atom_site_fract_z
    _atom_site_occupancy
    W1       W        0.08393    0.98344    0.68496    1.000
    W2       W        0.07574    0.88417    0.60304    1.000
    W3       W        0.07335    0.88119    0.50513    1.000
    W4       W        0.09111    0.99546    0.42818    1.000
    W5       W        0.19294    0.08330    0.50988    1.000
    W6       W        0.19322    0.08564    0.60782    1.000
    Cu1      Cu       0.30506    0.00942    0.48790    1.000
    Cu2      Cu       0.31920    0.04470    0.31823    1.000
    O1       O        0.07490    0.91700    0.65220    1.000
    O2       O        0.15580    0.05650    0.65250    1.000
    O3       O        0.98900    0.91960    0.70400    1.000
    O4       O        0.99270    0.92650    0.59700    1.000
    O5       O        0.06220    0.86800    0.55530    1.000
    O6       O        0.14770    0.98230    0.59710    1.000
    O7       O        0.98070    0.80330    0.61260    1.000
    O8       O        0.07540    0.91690    0.46050    1.000
    O9       O        0.99110    0.92520    0.51630    1.000
    O10      O        0.14810    0.97960    0.51630    1.000
    O11      O        0.97820    0.80150    0.49990    1.000
    O12      O        0.15860    0.05780    0.46120    1.000
    O13      O        0.99460    0.92500    0.40970    1.000
    O14      O        0.20110    0.09830    0.55690    1.000
    O15      O        0.28180    0.10200    0.50090    1.000
    N1       N        0.32890    0.99300    0.53360    1.000
    N2       N        0.37100    0.99630    0.60270    1.000
    N3       N        0.29620    0.01480    0.43900    1.000
    N4       N        0.30800    0.03360    0.36760    1.000
    C1       C        0.39860    0.01450    0.54280    1.000
    C2       C        0.45650    0.04300    0.51700    1.000
    H1       H        0.44390    0.04240    0.49320    1.000
    C3       C        0.52730    0.07000    0.52550    1.000
    H2       H        0.56470    0.09110    0.50820    1.000
    C4       C        0.54550    0.06670    0.56060    1.000
    H3       H        0.59480    0.08020    0.56660    1.000
    C5       C        0.49250    0.04420    0.58660    1.000
    H4       H        0.50540    0.04690    0.61050    1.000
    C6       C        0.42250    0.01840    0.57680    1.000
    C7       C        0.30220    0.97150    0.59380    1.000
    H5       H        0.26580    0.95520    0.61160    1.000
    C8       C        0.27920    0.96800    0.55740    1.000
    H6       H        0.22860    0.94750    0.55160    1.000
    C9       C        0.26900    0.95350    0.41810    1.000
    C10      C        0.23890    0.88290    0.43160    1.000
    H7       H        0.23950    0.87720    0.45620    1.000
    C11      C        0.21020    0.82450    0.41250    1.000
    H8       H        0.18730    0.77750    0.42350    1.000
    C12      C        0.21180    0.82850    0.37460    1.000
    H9       H        0.19200    0.78540    0.36050    1.000
    C13      C        0.24820    0.90840    0.35840    1.000
    H10      H        0.25090    0.91600    0.33390    1.000
    C14      C        0.27550    0.96540    0.38110    1.000
    C15      C        0.32460    0.08720    0.38850    1.000
    H11      H        0.34050    0.13510    0.37950    1.000
    C16      C        0.31950    0.07600    0.42520    1.000
    H12      H        0.33480    0.11770    0.44000    1.000
    W7       W        0.75060    0.31677    0.01829    1.000
    W8       W        0.74241    0.21750    0.93637    1.000
    W9       W        0.74002    0.21452    0.83846    1.000
    W10      W        0.75778    0.32879    0.76151    1.000
    W11      W        0.85961    0.41663    0.84322    1.000
    W12      W        0.85989    0.41897    0.94115    1.000
    Cu3      Cu       0.97173    0.34275    0.82123    1.000
    Cu4      Cu       0.98587    0.37803    0.65156    1.000
    O16      O        0.74157    0.25033    0.98553    1.000
    O17      O        0.82247    0.38983    0.98583    1.000
    O18      O        0.65567    0.25293    0.03733    1.000
    O19      O        0.65937    0.25983    0.93033    1.000
    O20      O        0.72887    0.20133    0.88863    1.000
    O21      O        0.81437    0.31563    0.93043    1.000
    O22      O        0.64737    0.13663    0.94593    1.000
    O23      O        0.74207    0.25023    0.79383    1.000
    O24      O        0.65777    0.25853    0.84963    1.000
    O25      O        0.81477    0.31293    0.84963    1.000
    O26      O        0.64487    0.13483    0.83323    1.000
    O27      O        0.82527    0.39113    0.79453    1.000
    O28      O        0.66127    0.25833    0.74303    1.000
    O29      O        0.86777    0.43163    0.89023    1.000
    O30      O        0.94847    0.43533    0.83423    1.000
    N5       N        0.99557    0.32633    0.86693    1.000
    N6       N        0.03767    0.32963    0.93603    1.000
    N7       N        0.96287    0.34813    0.77233    1.000
    N8       N        0.97467    0.36693    0.70093    1.000
    C17      C        0.06527    0.34783    0.87613    1.000
    C18      C        0.12317    0.37633    0.85033    1.000
    H13      H        0.11057    0.37573    0.82653    1.000
    C19      C        0.19397    0.40333    0.85883    1.000
    H14      H        0.23137    0.42443    0.84153    1.000
    C20      C        0.21217    0.40003    0.89393    1.000
    H15      H        0.26147    0.41353    0.89993    1.000
    C21      C        0.15917    0.37753    0.91993    1.000
    H16      H        0.17207    0.38023    0.94383    1.000
    C22      C        0.08917    0.35173    0.91013    1.000
    C23      C        0.96887    0.30483    0.92713    1.000
    H17      H        0.93247    0.28853    0.94493    1.000
    C24      C        0.94587    0.30133    0.89073    1.000
    H18      H        0.89527    0.28083    0.88493    1.000
    C25      C        0.93567    0.28683    0.75143    1.000
    C26      C        0.90557    0.21623    0.76493    1.000
    H19      H        0.90617    0.21053    0.78953    1.000
    C27      C        0.87687    0.15783    0.74583    1.000
    H20      H        0.85397    0.11083    0.75683    1.000
    C28      C        0.87847    0.16183    0.70793    1.000
    H21      H        0.85867    0.11873    0.69383    1.000
    C29      C        0.91487    0.24173    0.69173    1.000
    H22      H        0.91757    0.24933    0.66723    1.000
    C30      C        0.94217    0.29873    0.71443    1.000
    C31      C        0.99127    0.42053    0.72183    1.000
    H23      H        0.00717    0.46843    0.71283    1.000
    C32      C        0.98617    0.40933    0.75853    1.000
    H24      H        0.00147    0.45103    0.77333    1.000
    W13      W        0.41726    0.65011    0.35163    1.000
    W14      W        0.40907    0.55084    0.26971    1.000
    W15      W        0.40668    0.54786    0.17180    1.000
    W16      W        0.42444    0.66213    0.09485    1.000
    W17      W        0.52627    0.74997    0.17655    1.000
    W18      W        0.52655    0.75231    0.27449    1.000
    Cu5      Cu       0.63839    0.67609    0.15457    1.000
    Cu6      Cu       0.65253    0.71137    0.98490    1.000
    O31      O        0.40823    0.58367    0.31887    1.000
    O32      O        0.48913    0.72317    0.31917    1.000
    O33      O        0.32233    0.58627    0.37067    1.000
    O34      O        0.32603    0.59317    0.26367    1.000
    O35      O        0.39553    0.53467    0.22197    1.000
    O36      O        0.48103    0.64897    0.26377    1.000
    O37      O        0.31403    0.46997    0.27927    1.000
    O38      O        0.40873    0.58357    0.12717    1.000
    O39      O        0.32443    0.59187    0.18297    1.000
    O40      O        0.48143    0.64627    0.18297    1.000
    O41      O        0.31153    0.46817    0.16657    1.000
    O42      O        0.49193    0.72447    0.12787    1.000
    O43      O        0.32793    0.59167    0.07637    1.000
    O44      O        0.53443    0.76497    0.22357    1.000
    O45      O        0.61513    0.76867    0.16757    1.000
    N9       N        0.66223    0.65967    0.20027    1.000
    N10      N        0.70433    0.66297    0.26937    1.000
    N11      N        0.62953    0.68147    0.10567    1.000
    N12      N        0.64133    0.70027    0.03427    1.000
    C33      C        0.73193    0.68117    0.20947    1.000
    C34      C        0.78983    0.70967    0.18367    1.000
    H25      H        0.77723    0.70907    0.15987    1.000
    C35      C        0.86063    0.73667    0.19217    1.000
    H26      H        0.89803    0.75777    0.17487    1.000
    C36      C        0.87883    0.73337    0.22727    1.000
    H27      H        0.92813    0.74687    0.23327    1.000
    C37      C        0.82583    0.71087    0.25327    1.000
    H28      H        0.83873    0.71357    0.27717    1.000
    C38      C        0.75583    0.68507    0.24347    1.000
    C39      C        0.63553    0.63817    0.26047    1.000
    H29      H        0.59913    0.62187    0.27827    1.000
    C40      C        0.61253    0.63467    0.22407    1.000
    H30      H        0.56193    0.61417    0.21827    1.000
    C41      C        0.60233    0.62017    0.08477    1.000
    C42      C        0.57223    0.54957    0.09827    1.000
    H31      H        0.57283    0.54387    0.12287    1.000
    C43      C        0.54353    0.49117    0.07917    1.000
    H32      H        0.52063    0.44417    0.09017    1.000
    C44      C        0.54513    0.49517    0.04127    1.000
    H33      H        0.52533    0.45207    0.02717    1.000
    C45      C        0.58153    0.57507    0.02507    1.000
    H34      H        0.58423    0.58267    0.00057    1.000
    C46      C        0.60883    0.63207    0.04777    1.000
    C47      C        0.65793    0.75387    0.05517    1.000
    H35      H        0.67383    0.80177    0.04617    1.000
    C48      C        0.65283    0.74267    0.09187    1.000
    H36      H        0.66813    0.78437    0.10667    1.000
    W19      W        0.01656    0.10049    0.68496    1.000
    W20      W        0.11583    0.19157    0.60304    1.000
    W21      W        0.11881    0.19216    0.50513    1.000
    W22      W        0.00454    0.09565    0.42818    1.000
    W23      W        0.91670    0.10964    0.50988    1.000
    W24      W        0.91436    0.10758    0.60782    1.000
    Cu7      Cu       0.99058    0.29564    0.48790    1.000
    Cu8      Cu       0.95530    0.27450    0.31823    1.000
    O46      O        0.08300    0.15790    0.65220    1.000
    O47      O        0.94350    0.09930    0.65250    1.000
    O48      O        0.08040    0.06940    0.70400    1.000
    O49      O        0.07350    0.06620    0.59700    1.000
    O50      O        0.13200    0.19420    0.55530    1.000
    O51      O        0.01770    0.16540    0.59710    1.000
    O52      O        0.19670    0.17740    0.61260    1.000
    O53      O        0.08310    0.15850    0.46050    1.000
    O54      O        0.07480    0.06590    0.51630    1.000
    O55      O        0.02040    0.16850    0.51630    1.000
    O56      O        0.19850    0.17670    0.49990    1.000
    O57      O        0.94220    0.10080    0.46120    1.000
    O58      O        0.07500    0.06960    0.40970    1.000
    O59      O        0.90170    0.10280    0.55690    1.000
    O60      O        0.89800    0.17980    0.50090    1.000
    N13      N        0.00700    0.33590    0.53360    1.000
    N14      N        0.00370    0.37470    0.60270    1.000
    N15      N        0.98520    0.28140    0.43900    1.000
    N16      N        0.96640    0.27440    0.36760    1.000
    C49      C        0.98550    0.38410    0.54280    1.000
    C50      C        0.95700    0.41350    0.51700    1.000
    H37      H        0.95760    0.40150    0.49320    1.000
    C51      C        0.93000    0.45730    0.52550    1.000
    H38      H        0.90890    0.47360    0.50820    1.000
    C52      C        0.93330    0.47880    0.56060    1.000
    H39      H        0.91980    0.51460    0.56660    1.000
    C53      C        0.95580    0.44830    0.58660    1.000
    H40      H        0.95310    0.45850    0.61050    1.000
    C54      C        0.98160    0.40410    0.57680    1.000
    C55      C        0.02850    0.33070    0.59380    1.000
    H41      H        0.04480    0.31060    0.61160    1.000
    C56      C        0.03200    0.31120    0.55740    1.000
    H42      H        0.05250    0.28110    0.55160    1.000
    C57      C        0.04650    0.31550    0.41810    1.000
    C58      C        0.11710    0.35600    0.43160    1.000
    H43      H        0.12280    0.36230    0.45620    1.000
    C59      C        0.17550    0.38570    0.41250    1.000
    H44      H        0.22250    0.40980    0.42350    1.000
    C60      C        0.17150    0.38330    0.37460    1.000
    H45      H        0.21460    0.40660    0.36050    1.000
    C61      C        0.09160    0.33980    0.35840    1.000
    H46      H        0.08400    0.33490    0.33390    1.000
    C62      C        0.03460    0.31010    0.38110    1.000
    C63      C        0.91280    0.23740    0.38850    1.000
    H47      H        0.86490    0.20540    0.37950    1.000
    C64      C        0.92400    0.24350    0.42520    1.000
    H48      H        0.88230    0.21710    0.44000    1.000
    W25      W        0.68323    0.43382    0.01829    1.000
    W26      W        0.78250    0.52490    0.93637    1.000
    W27      W        0.78548    0.52549    0.83846    1.000
    W28      W        0.67121    0.42898    0.76151    1.000
    W29      W        0.58337    0.44297    0.84322    1.000
    W30      W        0.58103    0.44091    0.94115    1.000
    Cu9      Cu       0.65725    0.62897    0.82123    1.000
    Cu10     Cu       0.62197    0.60783    0.65156    1.000
    O61      O        0.74967    0.49123    0.98553    1.000
    O62      O        0.61017    0.43263    0.98583    1.000
    O63      O        0.74707    0.40273    0.03733    1.000
    O64      O        0.74017    0.39953    0.93033    1.000
    O65      O        0.79867    0.52753    0.88863    1.000
    O66      O        0.68437    0.49873    0.93043    1.000
    O67      O        0.86337    0.51073    0.94593    1.000
    O68      O        0.74977    0.49183    0.79383    1.000
    O69      O        0.74147    0.39923    0.84963    1.000
    O70      O        0.68707    0.50183    0.84963    1.000
    O71      O        0.86517    0.51003    0.83323    1.000
    O72      O        0.60887    0.43413    0.79453    1.000
    O73      O        0.74167    0.40293    0.74303    1.000
    O74      O        0.56837    0.43613    0.89023    1.000
    O75      O        0.56467    0.51313    0.83423    1.000
    N17      N        0.67367    0.66923    0.86693    1.000
    N18      N        0.67037    0.70803    0.93603    1.000
    N19      N        0.65187    0.61473    0.77233    1.000
    N20      N        0.63307    0.60773    0.70093    1.000
    C65      C        0.65217    0.71743    0.87613    1.000
    C66      C        0.62367    0.74683    0.85033    1.000
    H49      H        0.62427    0.73483    0.82653    1.000
    C67      C        0.59667    0.79063    0.85883    1.000
    H50      H        0.57557    0.80693    0.84153    1.000
    C68      C        0.59997    0.81213    0.89393    1.000
    H51      H        0.58647    0.84793    0.89993    1.000
    C69      C        0.62247    0.78163    0.91993    1.000
    H52      H        0.61977    0.79183    0.94383    1.000
    C70      C        0.64827    0.73743    0.91013    1.000
    C71      C        0.69517    0.66403    0.92713    1.000
    H53      H        0.71147    0.64393    0.94493    1.000
    C72      C        0.69867    0.64453    0.89073    1.000
    H54      H        0.71917    0.61443    0.88493    1.000
    C73      C        0.71317    0.64883    0.75143    1.000
    C74      C        0.78377    0.68933    0.76493    1.000
    H55      H        0.78947    0.69563    0.78953    1.000
    C75      C        0.84217    0.71903    0.74583    1.000
    H56      H        0.88917    0.74313    0.75683    1.000
    C76      C        0.83817    0.71663    0.70793    1.000
    H57      H        0.88127    0.73993    0.69383    1.000
    C77      C        0.75827    0.67313    0.69173    1.000
    H58      H        0.75067    0.66823    0.66723    1.000
    C78      C        0.70127    0.64343    0.71443    1.000
    C79      C        0.57947    0.57073    0.72183    1.000
    H59      H        0.53157    0.53873    0.71283    1.000
    C80      C        0.59067    0.57683    0.75853    1.000
    H60      H        0.54897    0.55043    0.77333    1.000
    W31      W        0.34989    0.76716    0.35163    1.000
    W32      W        0.44916    0.85824    0.26971    1.000
    W33      W        0.45214    0.85883    0.17180    1.000
    W34      W        0.33787    0.76232    0.09485    1.000
    W35      W        0.25003    0.77631    0.17655    1.000
    W36      W        0.24769    0.77425    0.27449    1.000
    Cu11     Cu       0.32391    0.96231    0.15457    1.000
    Cu12     Cu       0.28863    0.94117    0.98490    1.000
    O76      O        0.41633    0.82457    0.31887    1.000
    O77      O        0.27683    0.76597    0.31917    1.000
    O78      O        0.41373    0.73607    0.37067    1.000
    O79      O        0.40683    0.73287    0.26367    1.000
    O80      O        0.46533    0.86087    0.22197    1.000
    O81      O        0.35103    0.83207    0.26377    1.000
    O82      O        0.53003    0.84407    0.27927    1.000
    O83      O        0.41643    0.82517    0.12717    1.000
    O84      O        0.40813    0.73257    0.18297    1.000
    O85      O        0.35373    0.83517    0.18297    1.000
    O86      O        0.53183    0.84337    0.16657    1.000
    O87      O        0.27553    0.76747    0.12787    1.000
    O88      O        0.40833    0.73627    0.07637    1.000
    O89      O        0.23503    0.76947    0.22357    1.000
    O90      O        0.23133    0.84647    0.16757    1.000
    N21      N        0.34033    0.00257    0.20027    1.000
    N22      N        0.33703    0.04137    0.26937    1.000
    N23      N        0.31853    0.94807    0.10567    1.000
    N24      N        0.29973    0.94107    0.03427    1.000
    C81      C        0.31883    0.05077    0.20947    1.000
    C82      C        0.29033    0.08017    0.18367    1.000
    H61      H        0.29093    0.06817    0.15987    1.000
    C83      C        0.26333    0.12397    0.19217    1.000
    H62      H        0.24223    0.14027    0.17487    1.000
    C84      C        0.26663    0.14547    0.22727    1.000
    H63      H        0.25313    0.18127    0.23327    1.000
    C85      C        0.28913    0.11497    0.25327    1.000
    H64      H        0.28643    0.12517    0.27717    1.000
    C86      C        0.31493    0.07077    0.24347    1.000
    C87      C        0.36183    0.99737    0.26047    1.000
    H65      H        0.37813    0.97727    0.27827    1.000
    C88      C        0.36533    0.97787    0.22407    1.000
    H66      H        0.38583    0.94777    0.21827    1.000
    C89      C        0.37983    0.98217    0.08477    1.000
    C90      C        0.45043    0.02267    0.09827    1.000
    H67      H        0.45613    0.02897    0.12287    1.000
    C91      C        0.50883    0.05237    0.07917    1.000
    H68      H        0.55583    0.07647    0.09017    1.000
    C92      C        0.50483    0.04997    0.04127    1.000
    H69      H        0.54793    0.07327    0.02717    1.000
    C93      C        0.42493    0.00647    0.02507    1.000
    H70      H        0.41733    0.00157    0.00057    1.000
    C94      C        0.36793    0.97677    0.04777    1.000
    C95      C        0.24613    0.90407    0.05517    1.000
    H71      H        0.19823    0.87207    0.04617    1.000
    C96      C        0.25733    0.91017    0.09187    1.000
    H72      H        0.21563    0.88377    0.10667    1.000
    W37      W        0.89951    0.91607    0.68496    1.000
    W38      W        0.80843    0.92426    0.60304    1.000
    W39      W        0.80784    0.92665    0.50513    1.000
    W40      W        0.90435    0.90889    0.42818    1.000
    W41      W        0.89036    0.80706    0.50988    1.000
    W42      W        0.89242    0.80678    0.60782    1.000
    Cu13     Cu       0.70436    0.69494    0.48790    1.000
    Cu14     Cu       0.72550    0.68080    0.31823    1.000
    O91      O        0.84210    0.92510    0.65220    1.000
    O92      O        0.90070    0.84420    0.65250    1.000
    O93      O        0.93060    0.01100    0.70400    1.000
    O94      O        0.93380    0.00730    0.59700    1.000
    O95      O        0.80580    0.93780    0.55530    1.000
    O96      O        0.83460    0.85230    0.59710    1.000
    O97      O        0.82260    0.01930    0.61260    1.000
    O98      O        0.84150    0.92460    0.46050    1.000
    O99      O        0.93410    0.00890    0.51630    1.000
    O100     O        0.83150    0.85190    0.51630    1.000
    O101     O        0.82330    0.02180    0.49990    1.000
    O102     O        0.89920    0.84140    0.46120    1.000
    O103     O        0.93040    0.00540    0.40970    1.000
    O104     O        0.89720    0.79890    0.55690    1.000
    O105     O        0.82020    0.71820    0.50090    1.000
    N25      N        0.66410    0.67110    0.53360    1.000
    N26      N        0.62530    0.62900    0.60270    1.000
    N27      N        0.71860    0.70380    0.43900    1.000
    N28      N        0.72560    0.69200    0.36760    1.000
    C97      C        0.61590    0.60140    0.54280    1.000
    C98      C        0.58650    0.54350    0.51700    1.000
    H73      H        0.59850    0.55610    0.49320    1.000
    C99      C        0.54270    0.47270    0.52550    1.000
    H74      H        0.52640    0.43530    0.50820    1.000
    C100     C        0.52120    0.45450    0.56060    1.000
    H75      H        0.48540    0.40520    0.56660    1.000
    C101     C        0.55170    0.50750    0.58660    1.000
    H76      H        0.54150    0.49460    0.61050    1.000
    C102     C        0.59590    0.57750    0.57680    1.000
    C103     C        0.66930    0.69780    0.59380    1.000
    H77      H        0.68940    0.73420    0.61160    1.000
    C104     C        0.68880    0.72080    0.55740    1.000
    H78      H        0.71890    0.77140    0.55160    1.000
    C105     C        0.68450    0.73100    0.41810    1.000
    C106     C        0.64400    0.76110    0.43160    1.000
    H79      H        0.63770    0.76050    0.45620    1.000
    C107     C        0.61430    0.78980    0.41250    1.000
    H80      H        0.59020    0.81270    0.42350    1.000
    C108     C        0.61670    0.78820    0.37460    1.000
    H81      H        0.59340    0.80800    0.36050    1.000
    C109     C        0.66020    0.75180    0.35840    1.000
    H82      H        0.66510    0.74910    0.33390    1.000
    C110     C        0.68990    0.72450    0.38110    1.000
    C111     C        0.76260    0.67540    0.38850    1.000
    H83      H        0.79460    0.65950    0.37950    1.000
    C112     C        0.75650    0.68050    0.42520    1.000
    H84      H        0.78290    0.66520    0.44000    1.000
    W43      W        0.56618    0.24940    0.01829    1.000
    W44      W        0.47510    0.25759    0.93637    1.000
    W45      W        0.47451    0.25998    0.83846    1.000
    W46      W        0.57102    0.24222    0.76151    1.000
    W47      W        0.55703    0.14039    0.84322    1.000
    W48      W        0.55909    0.14011    0.94115    1.000
    Cu15     Cu       0.37103    0.02827    0.82123    1.000
    Cu16     Cu       0.39217    0.01413    0.65156    1.000
    O106     O        0.50877    0.25843    0.98553    1.000
    O107     O        0.56737    0.17753    0.98583    1.000
    O108     O        0.59727    0.34433    0.03733    1.000
    O109     O        0.60047    0.34063    0.93033    1.000
    O110     O        0.47247    0.27113    0.88863    1.000
    O111     O        0.50127    0.18563    0.93043    1.000
    O112     O        0.48927    0.35263    0.94593    1.000
    O113     O        0.50817    0.25793    0.79383    1.000
    O114     O        0.60077    0.34223    0.84963    1.000
    O115     O        0.49817    0.18523    0.84963    1.000
    O116     O        0.48997    0.35513    0.83323    1.000
    O117     O        0.56587    0.17473    0.79453    1.000
    O118     O        0.59707    0.33873    0.74303    1.000
    O119     O        0.56387    0.13223    0.89023    1.000
    O120     O        0.48687    0.05153    0.83423    1.000
    N29      N        0.33077    0.00443    0.86693    1.000
    N30      N        0.29197    0.96233    0.93603    1.000
    N31      N        0.38527    0.03713    0.77233    1.000
    N32      N        0.39227    0.02533    0.70093    1.000
    C113     C        0.28257    0.93473    0.87613    1.000
    C114     C        0.25317    0.87683    0.85033    1.000
    H85      H        0.26517    0.88943    0.82653    1.000
    C115     C        0.20937    0.80603    0.85883    1.000
    H86      H        0.19307    0.76863    0.84153    1.000
    C116     C        0.18787    0.78783    0.89393    1.000
    H87      H        0.15207    0.73853    0.89993    1.000
    C117     C        0.21837    0.84083    0.91993    1.000
    H88      H        0.20817    0.82793    0.94383    1.000
    C118     C        0.26257    0.91083    0.91013    1.000
    C119     C        0.33597    0.03113    0.92713    1.000
    H89      H        0.35607    0.06753    0.94493    1.000
    C120     C        0.35547    0.05413    0.89073    1.000
    H90      H        0.38557    0.10473    0.88493    1.000
    C121     C        0.35117    0.06433    0.75143    1.000
    C122     C        0.31067    0.09443    0.76493    1.000
    H91      H        0.30437    0.09383    0.78953    1.000
    C123     C        0.28097    0.12313    0.74583    1.000
    H92      H        0.25687    0.14603    0.75683    1.000
    C124     C        0.28337    0.12153    0.70793    1.000
    H93      H        0.26007    0.14133    0.69383    1.000
    C125     C        0.32687    0.08513    0.69173    1.000
    H94      H        0.33177    0.08243    0.66723    1.000
    C126     C        0.35657    0.05783    0.71443    1.000
    C127     C        0.42927    0.00873    0.72183    1.000
    H95      H        0.46127    0.99283    0.71283    1.000
    C128     C        0.42317    0.01383    0.75853    1.000
    H96      H        0.44957    0.99853    0.77333    1.000
    W49      W        0.23284    0.58274    0.35163    1.000
    W50      W        0.14176    0.59093    0.26971    1.000
    W51      W        0.14117    0.59332    0.17180    1.000
    W52      W        0.23768    0.57556    0.09485    1.000
    W53      W        0.22369    0.47373    0.17655    1.000
    W54      W        0.22575    0.47345    0.27449    1.000
    Cu17     Cu       0.03769    0.36161    0.15457    1.000
    Cu18     Cu       0.05883    0.34747    0.98490    1.000
    O121     O        0.17543    0.59177    0.31887    1.000
    O122     O        0.23403    0.51087    0.31917    1.000
    O123     O        0.26393    0.67767    0.37067    1.000
    O124     O        0.26713    0.67397    0.26367    1.000
    O125     O        0.13913    0.60447    0.22197    1.000
    O126     O        0.16793    0.51897    0.26377    1.000
    O127     O        0.15593    0.68597    0.27927    1.000
    O128     O        0.17483    0.59127    0.12717    1.000
    O129     O        0.26743    0.67557    0.18297    1.000
    O130     O        0.16483    0.51857    0.18297    1.000
    O131     O        0.15663    0.68847    0.16657    1.000
    O132     O        0.23253    0.50807    0.12787    1.000
    O133     O        0.26373    0.67207    0.07637    1.000
    O134     O        0.23053    0.46557    0.22357    1.000
    O135     O        0.15353    0.38487    0.16757    1.000
    N33      N        0.99743    0.33777    0.20027    1.000
    N34      N        0.95863    0.29567    0.26937    1.000
    N35      N        0.05193    0.37047    0.10567    1.000
    N36      N        0.05893    0.35867    0.03427    1.000
    C129     C        0.94923    0.26807    0.20947    1.000
    C130     C        0.91983    0.21017    0.18367    1.000
    H97      H        0.93183    0.22277    0.15987    1.000
    C131     C        0.87603    0.13937    0.19217    1.000
    H98      H        0.85973    0.10197    0.17487    1.000
    C132     C        0.85453    0.12117    0.22727    1.000
    H99      H        0.81873    0.07187    0.23327    1.000
    C133     C        0.88503    0.17417    0.25327    1.000
    H100     H        0.87483    0.16127    0.27717    1.000
    C134     C        0.92923    0.24417    0.24347    1.000
    C135     C        0.00263    0.36447    0.26047    1.000
    H101     H        0.02273    0.40087    0.27827    1.000
    C136     C        0.02213    0.38747    0.22407    1.000
    H102     H        0.05223    0.43807    0.21827    1.000
    C137     C        0.01783    0.39767    0.08477    1.000
    C138     C        0.97733    0.42777    0.09827    1.000
    H103     H        0.97103    0.42717    0.12287    1.000
    C139     C        0.94763    0.45647    0.07917    1.000
    H104     H        0.92353    0.47937    0.09017    1.000
    C140     C        0.95003    0.45487    0.04127    1.000
    H105     H        0.92673    0.47467    0.02717    1.000
    C141     C        0.99353    0.41847    0.02507    1.000
    H106     H        0.99843    0.41577    0.00057    1.000
    C142     C        0.02323    0.39117    0.04777    1.000
    C143     C        0.09593    0.34207    0.05517    1.000
    H107     H        0.12793    0.32617    0.04617    1.000
    C144     C        0.08983    0.34717    0.09187    1.000
    H108     H        0.11623    0.33187    0.10667    1.000
    P1       P        0.00000    0.00000    0.60820    1.000
    P2       P        0.00000    0.00000    0.50450    1.000
    O136     O        0.00000    0.00000    0.65020    1.000
    O137     O        0.00000    0.00000    0.46360    1.000
    P3       P        0.66667    0.33333    0.94153    1.000
    P4       P        0.66667    0.33333    0.83783    1.000
    O138     O        0.66667    0.33333    0.98353    1.000
    O139     O        0.66667    0.33333    0.79693    1.000
    P5       P        0.33333    0.66667    0.27487    1.000
    P6       P        0.33333    0.66667    0.17117    1.000
    O140     O        0.33333    0.66667    0.31687    1.000
    O141     O        0.33333    0.66667    0.13027    1.000
