# CIF file generated by openbabel 3.1.0, see https://openbabel.org
data_I
_chemical_name_common 'PASKAX_clean'
_cell_length_a 9.361
_cell_length_b 12.713
_cell_length_c 12.755
_cell_angle_alpha 111.843
_cell_angle_beta 105.938
_cell_angle_gamma 97.104
_space_group_name_H-M_alt 'P 1'
_space_group_name_Hall 'P 1'
loop_
    _symmetry_equiv_pos_as_xyz
    x,y,z
loop_
    _atom_site_label
    _atom_site_type_symbol
    _atom_site_fract_x
    _atom_site_fract_y
    _atom_site_fract_z
    _atom_site_occupancy
    Cd1      Cd       0.01485    0.39669    0.57774    1.000
    Cd2      Cd       0.98515    0.60331    0.42226    1.000
    H1       H        0.62520    0.35260    0.44710    1.000
    H2       H        0.44400    0.17650    0.28020    1.000
    H3       H        0.86490    0.13490    0.33960    1.000
    H4       H        0.38810    0.95640    0.20260    1.000
    H5       H        0.29090    0.77320    0.04050    1.000
    H6       H        0.66520    0.82910    0.95290    1.000
    H7       H        0.75950    0.01090    0.11480    1.000
    H8       H        0.18190    0.65750    0.82380    1.000
    H9       H        0.59510    0.60480    0.85370    1.000
    H10      H        0.40670    0.43940    0.67920    1.000
    H11      H        0.06400    0.06110    0.63390    1.000
    H12      H        0.22940    0.14120    0.71410    1.000
    H13      H        0.41790    0.23860    0.68860    1.000
    H14      H        0.22520    0.85340    0.40710    1.000
    H15      H        0.67500    0.28360    0.70610    1.000
    H16      H        0.69840    0.67120    0.64030    1.000
    H17      H        0.84940    0.73780    0.63770    1.000
    H18      H        0.83520    0.90270    0.69410    1.000
    H19      H        0.91580    0.10550    0.78600    1.000
    H20      H        0.02900    0.20420    0.99030    1.000
    H21      H        0.37480    0.64740    0.55290    1.000
    H22      H        0.55600    0.82350    0.71980    1.000
    H23      H        0.13510    0.86510    0.66040    1.000
    H24      H        0.61190    0.04360    0.79740    1.000
    H25      H        0.70910    0.22680    0.95950    1.000
    H26      H        0.33480    0.17090    0.04710    1.000
    H27      H        0.24050    0.98910    0.88520    1.000
    H28      H        0.81810    0.34250    0.17620    1.000
    H29      H        0.40490    0.39520    0.14630    1.000
    H30      H        0.59330    0.56060    0.32080    1.000
    H31      H        0.93600    0.93890    0.36610    1.000
    H32      H        0.77060    0.85880    0.28590    1.000
    H33      H        0.58210    0.76140    0.31140    1.000
    H34      H        0.77480    0.14660    0.59290    1.000
    H35      H        0.32500    0.71640    0.29390    1.000
    H36      H        0.30160    0.32880    0.35970    1.000
    H37      H        0.15060    0.26220    0.36230    1.000
    H38      H        0.16480    0.09730    0.30590    1.000
    H39      H        0.08420    0.89450    0.21400    1.000
    H40      H        0.97100    0.79580    0.00970    1.000
    C1       C        0.65080    0.28520    0.40440    1.000
    C2       C        0.55000    0.18930    0.31140    1.000
    C3       C        0.78250    0.16780    0.34620    1.000
    C4       C        0.57910    0.00150    0.17170    1.000
    C5       C        0.44260    0.93060    0.15110    1.000
    C6       C        0.38430    0.82100    0.05470    1.000
    C7       C        0.46910    0.78410    0.97980    1.000
    C8       C        0.60870    0.85500    0.00280    1.000
    C9       C        0.66500    0.96360    0.09900    1.000
    C10      C        0.26070    0.62320    0.80920    1.000
    C11      C        0.48940    0.59560    0.82680    1.000
    C12      C        0.38470    0.50420    0.73060    1.000
    C13      C        0.10690    0.20920    0.60720    1.000
    C14      C        0.15330    0.10850    0.63370    1.000
    C15      C        0.36710    0.07290    0.56860    1.000
    C16      C        0.45780    0.18190    0.64360    1.000
    C17      C        0.42140    0.98550    0.49370    1.000
    C18      C        0.32760    0.87260    0.41400    1.000
    C19      C        0.61250    0.20910    0.65330    1.000
    C20      C        0.86680    0.58350    0.64890    1.000
    C21      C        0.80960    0.69240    0.67470    1.000
    C22      C        0.90500    0.88150    0.84630    1.000
    C23      C        0.88230    0.94220    0.77730    1.000
    C24      C        0.93050    0.06370    0.83280    1.000
    C25      C        0.99900    0.12280    0.95490    1.000
    C26      C        0.97510    0.93820    0.97220    1.000
    C27      C        0.34920    0.71480    0.59560    1.000
    C28      C        0.45000    0.81070    0.68860    1.000
    C29      C        0.21750    0.83220    0.65380    1.000
    C30      C        0.42090    0.99850    0.82830    1.000
    C31      C        0.55740    0.06940    0.84890    1.000
    C32      C        0.61570    0.17900    0.94530    1.000
    C33      C        0.53090    0.21590    0.02020    1.000
    C34      C        0.39130    0.14500    0.99720    1.000
    C35      C        0.33500    0.03640    0.90100    1.000
    C36      C        0.73930    0.37680    0.19080    1.000
    C37      C        0.51060    0.40440    0.17320    1.000
    C38      C        0.61530    0.49580    0.26940    1.000
    C39      C        0.89310    0.79080    0.39280    1.000
    C40      C        0.84670    0.89150    0.36630    1.000
    C41      C        0.63290    0.92710    0.43140    1.000
    C42      C        0.54220    0.81810    0.35640    1.000
    C43      C        0.57860    0.01450    0.50630    1.000
    C44      C        0.67240    0.12740    0.58600    1.000
    C45      C        0.38750    0.79090    0.34670    1.000
    C46      C        0.13320    0.41650    0.35110    1.000
    C47      C        0.19040    0.30760    0.32530    1.000
    C48      C        0.09500    0.11850    0.15370    1.000
    C49      C        0.11770    0.05780    0.22270    1.000
    C50      C        0.06950    0.93630    0.16720    1.000
    C51      C        0.00100    0.87720    0.04510    1.000
    C52      C        0.02490    0.06180    0.02780    1.000
    N1       N        0.79570    0.26970    0.42720    1.000
    N2       N        0.63740    0.11430    0.27240    1.000
    N3       N        0.41060    0.67280    0.87780    1.000
    N4       N        0.23830    0.52170    0.72000    1.000
    N5       N        0.20430    0.73030    0.57280    1.000
    N6       N        0.36260    0.88570    0.72760    1.000
    N7       N        0.58940    0.32720    0.12220    1.000
    N8       N        0.76170    0.47830    0.28000    1.000
    O1       O        0.12290    0.22200    0.51950    1.000
    O2       O        0.05100    0.27440    0.67760    1.000
    O3       O        0.89570    0.54540    0.55380    1.000
    O4       O        0.88730    0.53480    0.71700    1.000
    O5       O        0.85760    0.76120    0.80140    1.000
    O6       O        0.21370    0.03460    0.55300    1.000
    O7       O        0.87710    0.77800    0.48050    1.000
    O8       O        0.94900    0.72560    0.32240    1.000
    O9       O        0.10430    0.45460    0.44620    1.000
    O10      O        0.11270    0.46520    0.28300    1.000
    O11      O        0.14240    0.23880    0.19860    1.000
    O12      O        0.78630    0.96540    0.44700    1.000
