# CIF file generated by openbabel 3.1.0, see https://openbabel.org
data_I
_chemical_name_common 'image0'
_cell_length_a 11.3379
_cell_length_b 7.1677
_cell_length_c 6.608
_cell_angle_alpha 90
_cell_angle_beta 109.69
_cell_angle_gamma 90
_space_group_name_H-M_alt 'P 1'
_space_group_name_Hall 'P 1'
loop_
    _symmetry_equiv_pos_as_xyz
    x,y,z
loop_
    _atom_site_label
    _atom_site_type_symbol
    _atom_site_fract_x
    _atom_site_fract_y
    _atom_site_fract_z
    _atom_site_occupancy
    O1       O        0.17210    0.68370    0.11620    1.000
    O2       O        0.00760    0.63310    0.33750    1.000
    O3       O        0.34650    0.82750    0.11880    1.000
    C1       C        0.23610    0.78640    0.03490    1.000
    H1       H        0.19490    0.83490    0.89880    1.000
    O4       O        0.67210    0.18370    0.11620    1.000
    O5       O        0.50760    0.13310    0.33750    1.000
    O6       O        0.84650    0.32750    0.11880    1.000
    C2       C        0.73610    0.28640    0.03490    1.000
    H2       H        0.69490    0.33490    0.89880    1.000
    O7       O        0.82790    0.68370    0.88380    1.000
    O8       O        0.99240    0.63310    0.66250    1.000
    O9       O        0.65350    0.82750    0.88120    1.000
    C3       C        0.76390    0.78640    0.96510    1.000
    H3       H        0.80510    0.83490    0.10120    1.000
    O10      O        0.32790    0.18370    0.88380    1.000
    O11      O        0.49240    0.13310    0.66250    1.000
    O12      O        0.15350    0.32750    0.88120    1.000
    C4       C        0.26390    0.28640    0.96510    1.000
    H4       H        0.30510    0.33490    0.10120    1.000
    Tb1      Tb       0.00000    0.48740    0.00000    1.000
    Tb2      Tb       0.50000    0.98740    0.00000    1.000
    C5       C        0.00000    0.55300    0.50000    1.000
    H5       H        0.00000    0.42370    0.50000    1.000
    C6       C        0.50000    0.05300    0.50000    1.000
    H6       H        0.50000    0.92370    0.50000    1.000
