# CIF file generated by openbabel 3.1.0, see https://openbabel.org
data_I
_chemical_name_common 'GALHOS_ion_b'
_cell_length_a 28.267
_cell_length_b 23.525
_cell_length_c 22.9753
_cell_angle_alpha 74.8635
_cell_angle_beta 53.4531
_cell_angle_gamma 51.6835
_space_group_name_H-M_alt 'P 1'
_space_group_name_Hall 'P 1'
loop_
    _symmetry_equiv_pos_as_xyz
    x,y,z
loop_
    _atom_site_label
    _atom_site_type_symbol
    _atom_site_fract_x
    _atom_site_fract_y
    _atom_site_fract_z
    _atom_site_occupancy
    O1       O        0.40711    0.76944    0.50586    1.000
    O2       O        0.51462    0.68948    0.42610    1.000
    O3       O        0.32097    0.49933    0.23398    1.000
    O4       O        0.21327    0.57232    0.31864    1.000
    C5       C        0.44867    0.71788    0.45449    1.000
    C6       C        0.42295    0.69352    0.43092    1.000
    C7       C        0.34762    0.72986    0.46482    1.000
    H8       H        0.30675    0.77672    0.50839    1.000
    C9       C        0.32376    0.70690    0.44275    1.000
    H10      H        0.26527    0.73816    0.46967    1.000
    C11      C        0.37422    0.64617    0.38605    1.000
    C12      C        0.44983    0.60971    0.35267    1.000
    H13      H        0.49150    0.56205    0.30995    1.000
    C14      C        0.47344    0.63309    0.37460    1.000
    H15      H        0.53164    0.60341    0.34779    1.000
    C16      C        0.34863    0.62145    0.36154    1.000
    C17      C        0.39366    0.58371    0.28964    1.000
    H18      H        0.44557    0.57517    0.24948    1.000
    C19      C        0.37164    0.55893    0.26687    1.000
    H20      H        0.40858    0.53012    0.21113    1.000
    C21      C        0.30216    0.57323    0.31414    1.000
    C22      C        0.25576    0.61284    0.38529    1.000
    H23      H        0.20180    0.62523    0.42343    1.000
    C24      C        0.27876    0.63568    0.40885    1.000
    H25      H        0.24158    0.66383    0.46481    1.000
    C26      C        0.27838    0.54778    0.28881    1.000
    O27      O        0.69860    0.52051    0.09552    1.000
    O28      O        0.62065    0.56936    0.20394    1.000
    O29      O        0.80910    0.99300    0.39568    1.000
    O30      O        0.89427    0.93866    0.28896    1.000
    C31      C        0.67215    0.50899    0.16068    1.000
    C32      C        0.69785    0.43407    0.18401    1.000
    C33      C        0.75228    0.36862    0.13247    1.000
    H34      H        0.77658    0.37135    0.07446    1.000
    C35      C        0.77515    0.29895    0.15487    1.000
    H36      H        0.81530    0.25135    0.11253    1.000
    C37      C        0.74560    0.29131    0.23000    1.000
    C38      C        0.69160    0.35761    0.28111    1.000
    H39      H        0.66751    0.35683    0.33920    1.000
    C40      C        0.66788    0.42707    0.25866    1.000
    H41      H        0.62624    0.47562    0.30030    1.000
    C42      C        0.77032    0.21580    0.25494    1.000
    C43      C        0.83721    0.14896    0.20602    1.000
    H44      H        0.87368    0.14934    0.14929    1.000
    C45      C        0.85965    0.07975    0.22947    1.000
    H46      H        0.91118    0.03044    0.18987    1.000
    C47      C        0.81684    0.07407    0.30302    1.000
    C48      C        0.75081    0.13990    0.35192    1.000
    H49      H        0.71688    0.13751    0.40874    1.000
    C50      C        0.72756    0.20898    0.32860    1.000
    H51      H        0.67511    0.25681    0.36910    1.000
    C52      C        0.84047    0.00073    0.32946    1.000
    N53      N        0.88816    0.47636    0.97478    1.000
    C54      C        0.88607    0.43301    0.94193    1.000
    C55      C        0.88150    0.53964    0.93823    1.000
    N56      N        0.70252    0.54432    0.29310    1.000
    C57      C        0.69029    0.50944    0.35862    1.000
    C58      C        0.77559    0.49270    0.22771    1.000
    O59      O        0.76152    0.41023    0.81982    1.000
    O60      O        0.69197    0.51628    0.87226    1.000
    O61      O        0.49359    0.32291    0.44811    1.000
    O62      O        0.57470    0.21446    0.39899    1.000
    C63      C        0.71550    0.45084    0.88119    1.000
    C64      C        0.69191    0.42474    0.95458    1.000
    C65      C        0.71186    0.35285    0.96057    1.000
    H66      H        0.74484    0.31486    0.91172    1.000
    C67      C        0.68915    0.32895    0.02949    1.000
    H68      H        0.70505    0.27367    0.03021    1.000
    C69      C        0.64617    0.37564    0.09567    1.000
    C70      C        0.62656    0.44787    0.08866    1.000
    H71      H        0.59483    0.48674    0.13598    1.000
    C72      C        0.64870    0.47168    0.01985    1.000
    H73      H        0.63258    0.52709    0.01728    1.000
    C74      C        0.62171    0.34983    0.17074    1.000
    C75      C        0.56254    0.40053    0.23757    1.000
    H76      H        0.53353    0.45845    0.23726    1.000
    C77      C        0.53869    0.37794    0.30679    1.000
    H78      H        0.49281    0.41961    0.35583    1.000
    C79      C        0.57314    0.30309    0.31297    1.000
    C80      C        0.63307    0.25166    0.24700    1.000
    H81      H        0.66215    0.19345    0.24901    1.000
    C82      C        0.65689    0.27441    0.17747    1.000
    H83      H        0.70411    0.23212    0.12924    1.000
    C84      C        0.54679    0.27967    0.38771    1.000
    O85      O        0.51692    0.70196    0.19559    1.000
    O86      O        0.56488    0.62798    0.11301    1.000
    O87      O        0.99082    0.81217    0.30987    1.000
    O88      O        0.93655    0.89528    0.38788    1.000
    C89      C        0.50490    0.67811    0.16650    1.000
    C90      C        0.42997    0.70505    0.19151    1.000
    C91      C        0.36499    0.75522    0.25718    1.000
    H92      H        0.36803    0.77607    0.29077    1.000
    C93      C        0.29557    0.77732    0.28172    1.000
    H94      H        0.24828    0.81352    0.33405    1.000
    C95      C        0.28781    0.75151    0.24074    1.000
    C96      C        0.35338    0.70267    0.17378    1.000
    H97      H        0.35191    0.68190    0.13855    1.000
    C98      C        0.42276    0.67929    0.15038    1.000
    H99      H        0.47126    0.64032    0.09978    1.000
    C100     C        0.21281    0.77467    0.26728    1.000
    C101     C        0.14562    0.84008    0.31809    1.000
    H102     H        0.14558    0.87620    0.33911    1.000
    C103     C        0.07673    0.86148    0.34171    1.000
    H104     H        0.02710    0.91197    0.38048    1.000
    C105     C        0.07180    0.81918    0.31487    1.000
    C106     C        0.13810    0.75417    0.26471    1.000
    H107     H        0.13634    0.72024    0.24339    1.000
    C108     C        0.20694    0.73189    0.24189    1.000
    H109     H        0.25544    0.68027    0.20466    1.000
    C110     C        0.99860    0.84249    0.33807    1.000
    N111     N        0.48420    0.89582    0.15220    1.000
    C112     C        0.43711    0.89350    0.22929    1.000
    C113     C        0.54778    0.88431    0.13771    1.000
    N114     N        0.55004    0.69297    0.95266    1.000
    C115     C        0.51179    0.68008    0.94062    1.000
    C116     C        0.50084    0.76799    0.99134    1.000
    O117     O        0.49909    0.81690    0.41251    1.000
    O118     O        0.42071    0.86913    0.51998    1.000
    O119     O        0.22878    0.44538    0.32638    1.000
    O120     O        0.31207    0.39563    0.21853    1.000
    C121     C        0.44821    0.87828    0.45401    1.000
    C122     C        0.42434    0.95191    0.42829    1.000
    C123     C        0.45374    0.95750    0.35329    1.000
    H124     H        0.49361    0.90836    0.31273    1.000
    C125     C        0.43163    0.02645    0.32950    1.000
    H126     H        0.45464    0.02734    0.27155    1.000
    C127     C        0.37980    0.09292    0.37955    1.000
    C128     C        0.35081    0.08651    0.45474    1.000
    H129     H        0.31204    0.13448    0.49604    1.000
    C130     C        0.37229    0.01772    0.47845    1.000
    H131     H        0.34868    0.01580    0.53642    1.000
    C132     C        0.35555    0.16788    0.35407    1.000
    C133     C        0.28657    0.23365    0.40191    1.000
    H134     H        0.24852    0.23149    0.45643    1.000
    C135     C        0.26377    0.30310    0.37958    1.000
    H136     H        0.21025    0.35153    0.41871    1.000
    C137     C        0.30813    0.31005    0.30744    1.000
    C138     C        0.37639    0.24472    0.25864    1.000
    H139     H        0.41226    0.24731    0.20260    1.000
    C140     C        0.39994    0.17525    0.28156    1.000
    H141     H        0.45367    0.12745    0.24206    1.000
    C142     C        0.28283    0.38471    0.28367    1.000
    O143     O        0.08700    0.19358    0.69925    1.000
    O144     O        0.19559    0.10998    0.62612    1.000
    O145     O        0.38755    0.30683    0.81243    1.000
    O146     O        0.28074    0.38514    0.89531    1.000
    C147     C        0.15200    0.16413    0.67562    1.000
    C148     C        0.17490    0.18940    0.70248    1.000
    C149     C        0.12375    0.25442    0.75364    1.000
    H150     H        0.06619    0.28759    0.77502    1.000
    C151     C        0.14619    0.27894    0.77629    1.000
    H152     H        0.10444    0.33086    0.81326    1.000
    C153     C        0.22080    0.23842    0.75021    1.000
    C154     C        0.27128    0.17197    0.70047    1.000
    H155     H        0.32876    0.13667    0.67955    1.000
    C156     C        0.24894    0.14871    0.67658    1.000
    H157     H        0.29015    0.09816    0.63766    1.000
    C158     C        0.24592    0.26469    0.77407    1.000
    C159     C        0.19628    0.31741    0.83826    1.000
    H160     H        0.13871    0.34031    0.87310    1.000
    C161     C        0.22004    0.34084    0.86007    1.000
    H162     H        0.17989    0.38126    0.90946    1.000
    C163     C        0.29457    0.31187    0.81953    1.000
    C164     C        0.34407    0.25957    0.75606    1.000
    H165     H        0.40153    0.23622    0.72385    1.000
    C166     C        0.32052    0.23706    0.73320    1.000
    H167     H        0.36165    0.19824    0.68259    1.000
    C168     C        0.32124    0.33512    0.84277    1.000
    N169     N        0.93768    0.25082    0.88165    1.000
    C170     C        0.90468    0.31479    0.85035    1.000
    C171     C        0.88831    0.23007    0.93107    1.000
    N172     N        0.28809    0.95977    0.70635    1.000
    C173     C        0.35329    0.94240    0.69395    1.000
    C174     C        0.22248    0.00407    0.77920    1.000
    O175     O        0.81404    0.50113    0.77396    1.000
    O176     O        0.86574    0.42287    0.69284    1.000
    O177     O        0.44259    0.23185    0.50069    1.000
    O178     O        0.39220    0.31358    0.57732    1.000
    C179     C        0.87523    0.45017    0.72193    1.000
    C180     C        0.94895    0.42633    0.69757    1.000
    C181     C        0.95467    0.45531    0.73779    1.000
    H182     H        0.90563    0.49467    0.78802    1.000
    C183     C        0.02360    0.43353    0.71442    1.000
    H184     H        0.02458    0.45619    0.74864    1.000
    C185     C        0.08994    0.38239    0.64919    1.000
    C186     C        0.08338    0.35390    0.60912    1.000
    H187     H        0.13122    0.31575    0.55819    1.000
    C188     C        0.01459    0.37510    0.63304    1.000
    H189     H        0.01250    0.35200    0.60036    1.000
    C190     C        0.16495    0.35820    0.62379    1.000
    C191     C        0.23083    0.28960    0.57837    1.000
    H192     H        0.22877    0.25187    0.56335    1.000
    C193     C        0.30030    0.26669    0.55419    1.000
    H194     H        0.34879    0.21344    0.51961    1.000
    C195     C        0.30714    0.31054    0.57594    1.000
    C196     C        0.24172    0.37847    0.62244    1.000
    H197     H        0.24420    0.41399    0.64067    1.000
    C198     C        0.17226    0.40214    0.64528    1.000
    H199     H        0.12441    0.45559    0.67940    1.000
    C200     C        0.38170    0.28511    0.55088    1.000
    O201     O        0.18901    0.09304    0.51984    1.000
    O202     O        0.10428    0.20134    0.56829    1.000
    O203     O        0.30222    0.39341    0.99272    1.000
    O204     O        0.37921    0.28649    0.93862    1.000
    C205     C        0.15909    0.15807    0.50814    1.000
    C206     C        0.18458    0.18123    0.43319    1.000
    C207     C        0.24998    0.13025    0.36816    1.000
    H208     H        0.28343    0.07274    0.37113    1.000
    C209     C        0.27444    0.15280    0.29860    1.000
    H210     H        0.32655    0.11120    0.25143    1.000
    C211     C        0.23359    0.22734    0.29064    1.000
    C212     C        0.16701    0.27772    0.35634    1.000
    H213     H        0.13163    0.33516    0.35499    1.000
    C214     C        0.14370    0.25528    0.42579    1.000
    H215     H        0.09296    0.29640    0.47404    1.000
    C216     C        0.25965    0.25244    0.21536    1.000
    C217     C        0.31155    0.20283    0.14826    1.000
    H218     H        0.33387    0.14539    0.14834    1.000
    C219     C        0.33482    0.22646    0.07918    1.000
    H220     H        0.37452    0.18633    0.02961    1.000
    C221     C        0.30655    0.30082    0.07394    1.000
    C222     C        0.25488    0.35040    0.14009    1.000
    H223     H        0.23182    0.40788    0.13806    1.000
    C224     C        0.23253    0.32690    0.20909    1.000
    H225     H        0.19421    0.36789    0.25737    1.000
    C226     C        0.32987    0.32718    0.00060    1.000
    N227     N        0.25186    0.95044    0.41615    1.000
    C228     C        0.31343    0.91198    0.42242    1.000
    C229     C        0.21656    0.91384    0.44739    1.000
    N230     N        0.95523    0.29412    0.54593    1.000
    C231     C        0.93681    0.36001    0.51158    1.000
    C232     C        0.99922    0.22914    0.49377    1.000
    O233     O        0.58615    0.22875    0.50245    1.000
    O234     O        0.47863    0.31195    0.57829    1.000
    O235     O        0.67195    0.50291    0.77081    1.000
    O236     O        0.77987    0.42804    0.68734    1.000
    C237     C        0.54443    0.28205    0.55198    1.000
    C238     C        0.56990    0.30666    0.57562    1.000
    C239     C        0.64474    0.26625    0.54705    1.000
    H240     H        0.68529    0.21577    0.50802    1.000
    C241     C        0.66842    0.28986    0.56870    1.000
    H242     H        0.72625    0.25558    0.54630    1.000
    C243     C        0.61837    0.35541    0.61939    1.000
    C244     C        0.54336    0.39562    0.64750    1.000
    H245     H        0.50218    0.44678    0.68529    1.000
    C246     C        0.51977    0.37155    0.62636    1.000
    H247     H        0.46194    0.40437    0.64919    1.000
    C248     C        0.64370    0.38096    0.64349    1.000
    C249     C        0.59559    0.42635    0.71209    1.000
    H250     H        0.54079    0.44132    0.74984    1.000
    C251     C        0.61797    0.45060    0.73490    1.000
    H252     H        0.57870    0.48504    0.78821    1.000
    C253     C        0.69034    0.42910    0.69085    1.000
    C254     C        0.73928    0.38275    0.62285    1.000
    H255     H        0.79548    0.36467    0.58722    1.000
    C256     C        0.71637    0.35972    0.59935    1.000
    H257     H        0.75603    0.32564    0.54587    1.000
    C258     C        0.71446    0.45392    0.71642    1.000
    O259     O        0.29750    0.48306    0.90996    1.000
    O260     O        0.37148    0.43474    0.80137    1.000
    O261     O        0.18497    0.00963    0.60971    1.000
    O262     O        0.10143    0.06417    0.71660    1.000
    C263     C        0.32175    0.49484    0.84490    1.000
    C264     C        0.29537    0.56981    0.82193    1.000
    C265     C        0.24520    0.63462    0.87300    1.000
    H266     H        0.22450    0.63130    0.93041    1.000
    C267     C        0.22267    0.70424    0.85058    1.000
    H268     H        0.18628    0.75145    0.89201    1.000
    C269     C        0.24811    0.71234    0.77616    1.000
    C270     C        0.29724    0.64688    0.72567    1.000
    H271     H        0.31765    0.64855    0.66830    1.000
    C272     C        0.32088    0.57738    0.74795    1.000
    H273     H        0.35922    0.52926    0.70680    1.000
    C274     C        0.22407    0.78757    0.75125    1.000
    C275     C        0.15834    0.85454    0.80052    1.000
    H276     H        0.12262    0.85423    0.85763    1.000
    C277     C        0.13616    0.92361    0.77684    1.000
    H278     H        0.08537    0.97311    0.81661    1.000
    C279     C        0.17805    0.92885    0.70275    1.000
    C280     C        0.24320    0.86276    0.65366    1.000
    H281     H        0.27663    0.86482    0.59658    1.000
    C282     C        0.26623    0.79382    0.67721    1.000
    H283     H        0.31794    0.74551    0.63669    1.000
    C284     C        0.15444    0.00205    0.67608    1.000
    N285     N        0.10594    0.52760    0.02967    1.000
    C286     C        0.11081    0.56913    0.06099    1.000
    C287     C        0.11160    0.46475    0.06659    1.000
    N288     N        0.29096    0.45690    0.71087    1.000
    C289     C        0.30301    0.49129    0.64505    1.000
    C290     C        0.21814    0.50891    0.77626    1.000
    O291     O        0.22720    0.59037    0.18584    1.000
    O292     O        0.30707    0.48284    0.13349    1.000
    O293     O        0.49867    0.67582    0.55699    1.000
    O294     O        0.42391    0.78376    0.60696    1.000
    C295     C        0.27868    0.54882    0.12443    1.000
    C296     C        0.30310    0.57447    0.05081    1.000
    C297     C        0.26598    0.64973    0.04550    1.000
    H298     H        0.21850    0.69065    0.09492    1.000
    C299     C        0.28898    0.67347    0.97655    1.000
    H300     H        0.25686    0.73187    0.97622    1.000
    C301     C        0.35095    0.62297    0.90968    1.000
    C302     C        0.38819    0.54747    0.91588    1.000
    H303     H        0.43671    0.50564    0.86770    1.000
    C304     C        0.36453    0.52392    0.98474    1.000
    H305     H        0.39498    0.46568    0.98643    1.000
    C306     C        0.37611    0.64832    0.83460    1.000
    C307     C        0.41857    0.60119    0.76919    1.000
    H308     H        0.43120    0.54740    0.77164    1.000
    C309     C        0.44291    0.62335    0.69966    1.000
    H310     H        0.47523    0.58481    0.65153    1.000
    C311     C        0.42409    0.69472    0.69231    1.000
    C312     C        0.38036    0.74289    0.75724    1.000
    H313     H        0.36446    0.79831    0.75429    1.000
    C314     C        0.35757    0.72003    0.82672    1.000
    H315     H        0.32592    0.75896    0.87406    1.000
    C316     C        0.44937    0.71851    0.61770    1.000
    O317     O        0.47727    0.30448    0.80782    1.000
    O318     O        0.42945    0.37635    0.89225    1.000
    O319     O        0.00427    0.19017    0.69447    1.000
    O320     O        0.05951    0.10604    0.61680    1.000
    C321     C        0.48940    0.32756    0.83748    1.000
    C322     C        0.56458    0.30071    0.81176    1.000
    C323     C        0.62944    0.24943    0.74669    1.000
    H324     H        0.62610    0.22830    0.71370    1.000
    C325     C        0.69929    0.22623    0.72200    1.000
    H326     H        0.74650    0.18890    0.67024    1.000
    C327     C        0.70757    0.25224    0.76217    1.000
    C328     C        0.64211    0.30235    0.82846    1.000
    H329     H        0.64397    0.32315    0.86326    1.000
    C330     C        0.57240    0.32651    0.85211    1.000
    H331     H        0.52429    0.36558    0.90264    1.000
    C332     C        0.78291    0.22806    0.73564    1.000
    C333     C        0.84982    0.16151    0.68640    1.000
    H334     H        0.84937    0.12514    0.66645    1.000
    C335     C        0.91892    0.13945    0.66312    1.000
    H336     H        0.96839    0.08799    0.62572    1.000
    C337     C        0.92415    0.18240    0.68870    1.000
    C338     C        0.85812    0.24848    0.73714    1.000
    H339     H        0.86021    0.28298    0.75714    1.000
    C340     C        0.78925    0.27123    0.75967    1.000
    H341     H        0.74099    0.32361    0.79556    1.000
    C342     C        0.99716    0.15914    0.66612    1.000
    N343     N        0.54731    0.12320    0.79179    1.000
    C344     C        0.56272    0.13812    0.71865    1.000
    C345     C        0.50183    0.09741    0.82792    1.000
    N346     N        0.45235    0.29461    0.04079    1.000
    C347     C        0.48769    0.30646    0.05883    1.000
    C348     C        0.50413    0.22231    0.99538    1.000
    O349     O        0.49458    0.18283    0.59356    1.000
    O350     O        0.57096    0.13049    0.48612    1.000
    O351     O        0.76700    0.55477    0.67992    1.000
    O352     O        0.67885    0.60429    0.78695    1.000
    C353     C        0.54423    0.12148    0.55212    1.000
    C354     C        0.56788    0.04796    0.57789    1.000
    C355     C        0.53444    0.04275    0.65318    1.000
    H356     H        0.49096    0.09223    0.69413    1.000
    C357     C        0.55673    0.97381    0.67690    1.000
    H358     H        0.52997    0.97353    0.73533    1.000
    C359     C        0.61300    0.90688    0.62635    1.000
    C360     C        0.64587    0.91297    0.55081    1.000
    H361     H        0.68819    0.86473    0.50890    1.000
    C362     C        0.62399    0.98185    0.52731    1.000
    H363     H        0.65082    0.98358    0.46906    1.000
    C364     C        0.63752    0.83189    0.65177    1.000
    C365     C        0.70799    0.76657    0.60505    1.000
    H366     H        0.74698    0.76893    0.55140    1.000
    C367     C        0.73094    0.69716    0.62743    1.000
    H368     H        0.78558    0.64909    0.58922    1.000
    C369     C        0.68515    0.68982    0.69846    1.000
    C370     C        0.61534    0.75464    0.74616    1.000
    H371     H        0.57837    0.75167    0.80134    1.000
    C372     C        0.59169    0.82402    0.72315    1.000
    H373     H        0.53673    0.87126    0.76170    1.000
    C374     C        0.71052    0.61525    0.72223    1.000
    O375     O        0.90726    0.80843    0.30767    1.000
    O376     O        0.79901    0.89334    0.37946    1.000
    O377     O        0.60660    0.69613    0.19383    1.000
    O378     O        0.71345    0.61900    0.11004    1.000
    C379     C        0.84223    0.83837    0.33108    1.000
    C380     C        0.81903    0.81290    0.30489    1.000
    C381     C        0.87009    0.74804    0.25357    1.000
    H382     H        0.92770    0.71493    0.23192    1.000
    C383     C        0.84754    0.72371    0.23091    1.000
    H384     H        0.88934    0.67195    0.19370    1.000
    C385     C        0.77286    0.76422    0.25721    1.000
    C386     C        0.72243    0.83036    0.30736    1.000
    H387     H        0.66488    0.86565    0.32861    1.000
    C388     C        0.74490    0.85341    0.33126    1.000
    H389     H        0.70368    0.90371    0.37049    1.000
    C390     C        0.74767    0.73829    0.23305    1.000
    C391     C        0.79755    0.68493    0.16929    1.000
    H392     H        0.85529    0.66132    0.13497    1.000
    C393     C        0.77390    0.66168    0.14717    1.000
    H394     H        0.81426    0.62070    0.09818    1.000
    C395     C        0.69925    0.69149    0.18689    1.000
    C396     C        0.64941    0.74465    0.24974    1.000
    H397     H        0.59172    0.76907    0.28094    1.000
    C398     C        0.67285    0.76688    0.27304    1.000
    H399     H        0.63138    0.80635    0.32322    1.000
    C400     C        0.67283    0.66832    0.16327    1.000
    N401     N        0.04179    0.75733    0.12637    1.000
    C402     C        0.08114    0.69641    0.15547    1.000
    C403     C        0.08465    0.78431    0.07368    1.000
    N404     N        0.76918    0.02200    0.20925    1.000
    C405     C        0.71244    0.03044    0.28610    1.000
    C406     C        0.83378    0.94488    0.17953    1.000
    O407     O        0.17970    0.49842    0.23192    1.000
    O408     O        0.12778    0.57677    0.31311    1.000
    O409     O        0.55127    0.76839    0.50402    1.000
    O410     O        0.60158    0.68531    0.42903    1.000
    C411     C        0.11843    0.54941    0.28393    1.000
    C412     C        0.04469    0.57352    0.30812    1.000
    C413     C        0.03887    0.54503    0.26761    1.000
    H414     H        0.08789    0.50583    0.21727    1.000
    C415     C        0.96990    0.56707    0.29087    1.000
    H416     H        0.96891    0.54473    0.25640    1.000
    C417     C        0.90360    0.61794    0.35631    1.000
    C418     C        0.91025    0.64609    0.39656    1.000
    H419     H        0.86247    0.68409    0.44760    1.000
    C420     C        0.97908    0.62472    0.37270    1.000
    H421     H        0.98117    0.64767    0.40554    1.000
    C422     C        0.82860    0.64208    0.38172    1.000
    C423     C        0.76248    0.71009    0.42824    1.000
    H424     H        0.76413    0.74742    0.44459    1.000
    C425     C        0.69314    0.73286    0.45218    1.000
    H426     H        0.64446    0.78564    0.48761    1.000
    C427     C        0.68659    0.68938    0.42940    1.000
    C428     C        0.75218    0.62203    0.38201    1.000
    H429     H        0.74991    0.58681    0.36300    1.000
    C430     C        0.82154    0.59855    0.35920    1.000
    H431     H        0.86952    0.54550    0.32433    1.000
    C432     C        0.61211    0.71456    0.45455    1.000
    O433     O        0.80735    0.91025    0.48580    1.000
    O434     O        0.88948    0.80160    0.43725    1.000
    O435     O        0.69134    0.60956    0.01231    1.000
    O436     O        0.61757    0.71634    0.06555    1.000
    C437     C        0.83578    0.84510    0.49740    1.000
    C438     C        0.80980    0.82186    0.57217    1.000
    C439     C        0.74408    0.87274    0.63714    1.000
    H440     H        0.71066    0.93033    0.63424    1.000
    C441     C        0.71945    0.84994    0.70653    1.000
    H442     H        0.66726    0.89133    0.75385    1.000
    C443     C        0.76038    0.77532    0.71423    1.000
    C444     C        0.82694    0.72500    0.64860    1.000
    H445     H        0.86208    0.66748    0.65002    1.000
    C446     C        0.85044    0.74766    0.57933    1.000
    H447     H        0.90120    0.70665    0.53099    1.000
    C448     C        0.73453    0.75010    0.78929    1.000
    C449     C        0.68480    0.79920    0.85611    1.000
    H450     H        0.66407    0.85621    0.85574    1.000
    C451     C        0.66190    0.77553    0.92509    1.000
    H452     H        0.62382    0.81527    0.97445    1.000
    C453     C        0.68838    0.70159    0.93047    1.000
    C454     C        0.73774    0.65249    0.86454    1.000
    H455     H        0.75919    0.59538    0.86669    1.000
    C456     C        0.75983    0.67610    0.79558    1.000
    H457     H        0.79648    0.63569    0.74733    1.000
    C458     C        0.66531    0.67549    0.00389    1.000
    N459     N        0.83027    0.02978    0.53297    1.000
    C460     C        0.75167    0.06439    0.57514    1.000
    C461     C        0.85223    0.06565    0.46969    1.000
    N462     N        0.03911    0.70875    0.45907    1.000
    C463     C        0.05585    0.64344    0.49436    1.000
    C464     C        0.99475    0.77410    0.51099    1.000
    In465    In       0.48970    0.75722    0.49521    1.000
    In466    In       0.75377    0.49264    0.76050    1.000
    In467    In       0.50403    0.24223    0.51070    1.000
    In468    In       0.23965    0.50753    0.24533    1.000
    In469    In       0.62874    0.63245    0.12384    1.000
    In470    In       0.11580    0.12112    0.63132    1.000
    In471    In       0.36577    0.37140    0.88122    1.000
    In472    In       0.87920    0.88153    0.37412    1.000
    H473     H        0.84484    0.49483    0.03059    1.000
    H474     H        0.88788    0.38730    0.97258    1.000
    H475     H        0.93432    0.40891    0.88369    1.000
    H476     H        0.83457    0.46753    0.94457    1.000
    H477     H        0.92784    0.52117    0.87905    1.000
    H478     H        0.88295    0.57186    0.96413    1.000
    H479     H        0.82860    0.57633    0.94345    1.000
    H480     H        0.66252    0.56209    0.28556    1.000
    H481     H        0.69424    0.46112    0.35225    1.000
    H482     H        0.63444    0.54922    0.40745    1.000
    H483     H        0.73119    0.49150    0.36883    1.000
    H484     H        0.78311    0.51955    0.17842    1.000
    H485     H        0.78213    0.44337    0.21877    1.000
    H486     H        0.81911    0.47537    0.23334    1.000
    H487     H        0.50244    0.85481    0.11851    1.000
    H488     H        0.46891    0.84097    0.24483    1.000
    H489     H        0.39198    0.89759    0.23788    1.000
    H490     H        0.41224    0.94046    0.26578    1.000
    H491     H        0.58221    0.88722    0.07925    1.000
    H492     H        0.58221    0.82933    0.14826    1.000
    H493     H        0.52972    0.92750    0.17271    1.000
    H494     H        0.56452    0.65674    0.98638    1.000
    H495     H        0.54881    0.62228    0.91360    1.000
    H496     H        0.49649    0.71668    0.90389    1.000
    H497     H        0.46156    0.68957    0.99351    1.000
    H498     H        0.45068    0.77822    0.04495    1.000
    H499     H        0.48498    0.80841    0.95684    1.000
    H500     H        0.52967    0.77626    0.00226    1.000
    H501     H        0.98711    0.20648    0.83913    1.000
    H502     H        0.85201    0.36280    0.89454    1.000
    H503     H        0.89435    0.30221    0.81747    1.000
    H504     H        0.94280    0.32981    0.81342    1.000
    H505     H        0.91449    0.18130    0.95390    1.000
    H506     H        0.87657    0.21571    0.90096    1.000
    H507     H        0.83587    0.27568    0.97773    1.000
    H508     H        0.28047    0.98893    0.66613    1.000
    H509     H        0.40224    0.90964    0.63814    1.000
    H510     H        0.36372    0.90961    0.73489    1.000
    H511     H        0.34635    0.99354    0.69777    1.000
    H512     H        0.22827    0.97294    0.82297    1.000
    H513     H        0.17348    0.01800    0.78691    1.000
    H514     H        0.21296    0.05632    0.78516    1.000
    H515     H        0.21302    0.00449    0.44422    1.000
    H516     H        0.33740    0.94233    0.40117    1.000
    H517     H        0.35716    0.85549    0.38972    1.000
    H518     H        0.29467    0.90881    0.48074    1.000
    H519     H        0.25600    0.85704    0.41684    1.000
    H520     H        0.16942    0.94455    0.44302    1.000
    H521     H        0.19542    0.91210    0.50649    1.000
    H522     H        0.98492    0.28614    0.56406    1.000
    H523     H        0.90316    0.37098    0.49393    1.000
    H524     H        0.98751    0.35362    0.46313    1.000
    H525     H        0.90450    0.40841    0.55163    1.000
    H526     H        0.96757    0.23534    0.47584    1.000
    H527     H        0.01381    0.17964    0.52039    1.000
    H528     H        0.05111    0.22015    0.44483    1.000
    H529     H        0.05548    0.56221    0.03591    1.000
    H530     H        0.11033    0.61410    0.02961    1.000
    H531     H        0.16271    0.53308    0.05774    1.000
    H532     H        0.06310    0.59402    0.11934    1.000
    H533     H        0.16526    0.42640    0.05984    1.000
    H534     H        0.10750    0.43423    0.04219    1.000
    H535     H        0.06624    0.48357    0.12611    1.000
    H536     H        0.29497    0.41146    0.70418    1.000
    H537     H        0.29932    0.53967    0.65065    1.000
    H538     H        0.26184    0.50908    0.63535    1.000
    H539     H        0.35870    0.45124    0.59622    1.000
    H540     H        0.21073    0.48241    0.82572    1.000
    H541     H        0.17430    0.52627    0.77116    1.000
    H542     H        0.21199    0.55819    0.78451    1.000
    H543     H        0.59700    0.08296    0.78664    1.000
    H544     H        0.51101    0.17746    0.72169    1.000
    H545     H        0.59792    0.08628    0.68139    1.000
    H546     H        0.59212    0.16308    0.69477    1.000
    H547     H        0.48947    0.08812    0.88387    1.000
    H548     H        0.53139    0.04459    0.79617    1.000
    H549     H        0.44876    0.13905    0.83361    1.000
    H550     H        0.40766    0.29787    0.08944    1.000
    H551     H        0.53540    0.30341    0.00799    1.000
    H552     H        0.50667    0.26478    0.09098    1.000
    H553     H        0.44786    0.36184    0.09249    1.000
    H554     H        0.47689    0.21508    0.98081    1.000
    H555     H        0.52282    0.17786    0.02587    1.000
    H556     H        0.55263    0.21699    0.94345    1.000
    H557     H        0.03186    0.73939    0.10031    1.000
    H558     H        0.13446    0.64949    0.11047    1.000
    H559     H        0.04755    0.67708    0.19563    1.000
    H560     H        0.09153    0.71440    0.18418    1.000
    H561     H        0.05388    0.83031    0.05224    1.000
    H562     H        0.13808    0.73993    0.02648    1.000
    H563     H        0.09475    0.80499    0.10054    1.000
    H564     H        0.78482    0.05364    0.20594    1.000
    H565     H        0.73360    0.01141    0.32063    1.000
    H566     H        0.69325    0.99913    0.29071    1.000
    H567     H        0.66438    0.08923    0.30774    1.000
    H568     H        0.87603    0.93972    0.12124    1.000
    H569     H        0.81878    0.91009    0.18161    1.000
    H570     H        0.85839    0.92425    0.21086    1.000
    H571     H        0.84145    0.03401    0.56700    1.000
    H572     H        0.73659    0.03534    0.62188    1.000
    H573     H        0.73792    0.06142    0.54016    1.000
    H574     H        0.71860    0.12286    0.59772    1.000
    H575     H        0.84176    0.06127    0.43206    1.000
    H576     H        0.91191    0.03868    0.43856    1.000
    H577     H        0.82179    0.12457    0.48809    1.000
    H578     H        0.08827    0.70068    0.41461    1.000
    H579     H        0.08860    0.59472    0.45444    1.000
    H580     H        0.00448    0.65060    0.54198    1.000
    H581     H        0.08836    0.63248    0.51357    1.000
    H582     H        0.94221    0.78387    0.55921    1.000
    H583     H        0.98135    0.82319    0.48369    1.000
    H584     H        0.02558    0.76780    0.53013    1.000
    H585     H        0.43337    0.33547    0.01221    1.000
    H586     H        0.74774    0.04053    0.17809    1.000
    H587     H        0.86031    0.97418    0.51460    1.000
    H588     H        0.69812    0.58980    0.30051    1.000
    H589     H        0.51958    0.17126    0.82417    1.000
    H590     H        0.33127    0.43915    0.71792    1.000
    H591     H        0.01025    0.71680    0.43976    1.000
    H592     H        0.99154    0.80043    0.16961    1.000
    H593     H        0.45370    0.94715    0.14022    1.000
    H594     H        0.90672    0.30139    0.59111    1.000
    H595     H        0.94842    0.26341    0.91100    1.000
    H596     H        0.93804    0.44311    0.96961    1.000
    H597     H        0.14854    0.50878    0.97363    1.000
    H598     H        0.29595    0.91086    0.70251    1.000
    H599     H        0.27124    0.95135    0.36066    1.000
