# CIF file generated by openbabel 3.1.0, see https://openbabel.org
data_I
_chemical_name_common 'image0'
_cell_length_a 10.23
_cell_length_b 9.468
_cell_length_c 28.006
_cell_angle_alpha 90
_cell_angle_beta 98.048
_cell_angle_gamma 90
_space_group_name_H-M_alt 'P 1'
_space_group_name_Hall 'P 1'
loop_
    _symmetry_equiv_pos_as_xyz
    x,y,z
loop_
    _atom_site_label
    _atom_site_type_symbol
    _atom_site_fract_x
    _atom_site_fract_y
    _atom_site_fract_z
    _atom_site_occupancy
    Co1      Co       0.77973    0.38336    0.69352    1.000
    Co2      Co       0.55644    0.43970    0.59720    1.000
    O1       O        0.53270    0.24630    0.62640    1.000
    O2       O        0.70990    0.18690    0.67780    1.000
    O3       O        0.78250    0.65270    0.70590    1.000
    O4       O        0.63260    0.51830    0.66600    1.000
    O5       O        0.28770    0.87800    0.73500    1.000
    O6       O        0.08120    0.84860    0.74520    1.000
    O7       O        0.58970    0.62590    0.46420    1.000
    O8       O        0.65210    0.53880    0.39920    1.000
    O9       O        0.10060    0.60780    0.35900    1.000
    O10      O        0.26260    0.61080    0.42190    1.000
    C1       C        0.60300    0.15900    0.65200    1.000
    C2       C        0.55180    0.01010    0.65330    1.000
    C3       C        0.63570    0.89880    0.66780    1.000
    H1       H        0.72550    0.91440    0.67700    1.000
    C4       C        0.58370    0.76290    0.66870    1.000
    C5       C        0.44910    0.74170    0.65790    1.000
    H2       H        0.41490    0.65130    0.66010    1.000
    C6       C        0.36390    0.85370    0.64370    1.000
    C7       C        0.41570    0.98460    0.64030    1.000
    H3       H        0.36030    0.05910    0.62930    1.000
    C8       C        0.67390    0.63950    0.68110    1.000
    C9       C        0.21900    0.82460    0.63140    1.000
    C10      C        0.13070    0.82520    0.66490    1.000
    C11      C        0.99820    0.79150    0.64870    1.000
    H4       H        0.93890    0.79260    0.67100    1.000
    C12      C        0.95030    0.75630    0.60080    1.000
    H5       H        0.86200    0.73310    0.59160    1.000
    C13      C        0.03920    0.75720    0.56740    1.000
    C14      C        0.16920    0.79280    0.58380    1.000
    H6       H        0.22780    0.79560    0.56120    1.000
    C15      C        0.17120    0.85280    0.71800    1.000
    C16      C        0.99480    0.71300    0.51660    1.000
    C17      C        0.86230    0.68190    0.50050    1.000
    H7       H        0.80000    0.69650    0.52120    1.000
    C18      C        0.82210    0.63080    0.45530    1.000
    C19      C        0.91250    0.60870    0.42320    1.000
    H8       H        0.88430    0.57260    0.39260    1.000
    C20      C        0.04440    0.64050    0.43700    1.000
    C21      C        0.08490    0.68900    0.48440    1.000
    H9       H        0.17410    0.70550    0.49440    1.000
    C22      C        0.14660    0.61590    0.40420    1.000
    C23      C        0.67910    0.59510    0.43790    1.000
    Co3      Co       0.22027    0.88336    0.80648    1.000
    Co4      Co       0.44356    0.93970    0.90280    1.000
    O11      O        0.46730    0.74630    0.87360    1.000
    O12      O        0.29010    0.68690    0.82220    1.000
    O13      O        0.21750    0.15270    0.79410    1.000
    O14      O        0.36740    0.01830    0.83400    1.000
    O15      O        0.71230    0.37800    0.76500    1.000
    O16      O        0.91880    0.34860    0.75480    1.000
    O17      O        0.41030    0.12590    0.03580    1.000
    O18      O        0.34790    0.03880    0.10080    1.000
    O19      O        0.89940    0.10780    0.14100    1.000
    O20      O        0.73740    0.11080    0.07810    1.000
    C24      C        0.39700    0.65900    0.84800    1.000
    C25      C        0.44820    0.51010    0.84670    1.000
    C26      C        0.36430    0.39880    0.83220    1.000
    H10      H        0.27450    0.41440    0.82300    1.000
    C27      C        0.41630    0.26290    0.83130    1.000
    C28      C        0.55090    0.24170    0.84210    1.000
    H11      H        0.58510    0.15130    0.83990    1.000
    C29      C        0.63610    0.35370    0.85630    1.000
    C30      C        0.58430    0.48460    0.85970    1.000
    H12      H        0.63970    0.55910    0.87070    1.000
    C31      C        0.32610    0.13950    0.81890    1.000
    C32      C        0.78100    0.32460    0.86860    1.000
    C33      C        0.86930    0.32520    0.83510    1.000
    C34      C        0.00180    0.29150    0.85130    1.000
    H13      H        0.06110    0.29260    0.82900    1.000
    C35      C        0.04970    0.25630    0.89920    1.000
    H14      H        0.13800    0.23310    0.90840    1.000
    C36      C        0.96080    0.25720    0.93260    1.000
    C37      C        0.83080    0.29280    0.91620    1.000
    H15      H        0.77220    0.29560    0.93880    1.000
    C38      C        0.82880    0.35280    0.78200    1.000
    C39      C        0.00520    0.21300    0.98340    1.000
    C40      C        0.13770    0.18190    0.99950    1.000
    H16      H        0.20000    0.19650    0.97880    1.000
    C41      C        0.17790    0.13080    0.04470    1.000
    C42      C        0.08750    0.10870    0.07680    1.000
    H17      H        0.11570    0.07260    0.10740    1.000
    C43      C        0.95560    0.14050    0.06300    1.000
    C44      C        0.91510    0.18900    0.01560    1.000
    H18      H        0.82590    0.20550    0.00560    1.000
    C45      C        0.85340    0.11590    0.09580    1.000
    C46      C        0.32090    0.09510    0.06210    1.000
    Co5      Co       0.22027    0.61664    0.30648    1.000
    Co6      Co       0.44356    0.56030    0.40280    1.000
    O21      O        0.46730    0.75370    0.37360    1.000
    O22      O        0.29010    0.81310    0.32220    1.000
    O23      O        0.21750    0.34730    0.29410    1.000
    O24      O        0.36740    0.48170    0.33400    1.000
    O25      O        0.71230    0.12200    0.26500    1.000
    O26      O        0.91880    0.15140    0.25480    1.000
    O27      O        0.41030    0.37410    0.53580    1.000
    O28      O        0.34790    0.46120    0.60080    1.000
    O29      O        0.89940    0.39220    0.64100    1.000
    O30      O        0.73740    0.38920    0.57810    1.000
    C47      C        0.39700    0.84100    0.34800    1.000
    C48      C        0.44820    0.98990    0.34670    1.000
    C49      C        0.36430    0.10120    0.33220    1.000
    H19      H        0.27450    0.08560    0.32300    1.000
    C50      C        0.41630    0.23710    0.33130    1.000
    C51      C        0.55090    0.25830    0.34210    1.000
    H20      H        0.58510    0.34870    0.33990    1.000
    C52      C        0.63610    0.14630    0.35630    1.000
    C53      C        0.58430    0.01540    0.35970    1.000
    H21      H        0.63970    0.94090    0.37070    1.000
    C54      C        0.32610    0.36050    0.31890    1.000
    C55      C        0.78100    0.17540    0.36860    1.000
    C56      C        0.86930    0.17480    0.33510    1.000
    C57      C        0.00180    0.20850    0.35130    1.000
    H22      H        0.06110    0.20740    0.32900    1.000
    C58      C        0.04970    0.24370    0.39920    1.000
    H23      H        0.13800    0.26690    0.40840    1.000
    C59      C        0.96080    0.24280    0.43260    1.000
    C60      C        0.83080    0.20720    0.41620    1.000
    H24      H        0.77220    0.20440    0.43880    1.000
    C61      C        0.82880    0.14720    0.28200    1.000
    C62      C        0.00520    0.28700    0.48340    1.000
    C63      C        0.13770    0.31810    0.49950    1.000
    H25      H        0.20000    0.30350    0.47880    1.000
    C64      C        0.17790    0.36920    0.54470    1.000
    C65      C        0.08750    0.39130    0.57680    1.000
    H26      H        0.11570    0.42740    0.60740    1.000
    C66      C        0.95560    0.35950    0.56300    1.000
    C67      C        0.91510    0.31100    0.51560    1.000
    H27      H        0.82590    0.29450    0.50560    1.000
    C68      C        0.85340    0.38410    0.59580    1.000
    C69      C        0.32090    0.40490    0.56210    1.000
    Co7      Co       0.77973    0.11664    0.19352    1.000
    Co8      Co       0.55644    0.06030    0.09720    1.000
    O31      O        0.53270    0.25370    0.12640    1.000
    O32      O        0.70990    0.31310    0.17780    1.000
    O33      O        0.78250    0.84730    0.20590    1.000
    O34      O        0.63260    0.98170    0.16600    1.000
    O35      O        0.28770    0.62200    0.23500    1.000
    O36      O        0.08120    0.65140    0.24520    1.000
    O37      O        0.58970    0.87410    0.96420    1.000
    O38      O        0.65210    0.96120    0.89920    1.000
    O39      O        0.10060    0.89220    0.85900    1.000
    O40      O        0.26260    0.88920    0.92190    1.000
    C70      C        0.60300    0.34100    0.15200    1.000
    C71      C        0.55180    0.48990    0.15330    1.000
    C72      C        0.63570    0.60120    0.16780    1.000
    H28      H        0.72550    0.58560    0.17700    1.000
    C73      C        0.58370    0.73710    0.16870    1.000
    C74      C        0.44910    0.75830    0.15790    1.000
    H29      H        0.41490    0.84870    0.16010    1.000
    C75      C        0.36390    0.64630    0.14370    1.000
    C76      C        0.41570    0.51540    0.14030    1.000
    H30      H        0.36030    0.44090    0.12930    1.000
    C77      C        0.67390    0.86050    0.18110    1.000
    C78      C        0.21900    0.67540    0.13140    1.000
    C79      C        0.13070    0.67480    0.16490    1.000
    C80      C        0.99820    0.70850    0.14870    1.000
    H31      H        0.93890    0.70740    0.17100    1.000
    C81      C        0.95030    0.74370    0.10080    1.000
    H32      H        0.86200    0.76690    0.09160    1.000
    C82      C        0.03920    0.74280    0.06740    1.000
    C83      C        0.16920    0.70720    0.08380    1.000
    H33      H        0.22780    0.70440    0.06120    1.000
    C84      C        0.17120    0.64720    0.21800    1.000
    C85      C        0.99480    0.78700    0.01660    1.000
    C86      C        0.86230    0.81810    0.00050    1.000
    H34      H        0.80000    0.80350    0.02120    1.000
    C87      C        0.82210    0.86920    0.95530    1.000
    C88      C        0.91250    0.89130    0.92320    1.000
    H35      H        0.88430    0.92740    0.89260    1.000
    C89      C        0.04440    0.85950    0.93700    1.000
    C90      C        0.08490    0.81100    0.98440    1.000
    H36      H        0.17410    0.79450    0.99440    1.000
    C91      C        0.14660    0.88410    0.90420    1.000
    C92      C        0.67910    0.90490    0.93790    1.000
