# CIF file generated by openbabel 3.1.0, see https://openbabel.org
data_I
_chemical_name_common 'ja305196u_si_002_clean'
_cell_length_a 7.3041
_cell_length_b 7.3041
_cell_length_c 8.164
_cell_angle_alpha 90
_cell_angle_beta 90
_cell_angle_gamma 120
_space_group_name_H-M_alt 'P 1'
_space_group_name_Hall 'P 1'
loop_
    _symmetry_equiv_pos_as_xyz
    x,y,z
loop_
    _atom_site_label
    _atom_site_type_symbol
    _atom_site_fract_x
    _atom_site_fract_y
    _atom_site_fract_z
    _atom_site_occupancy
    Zn1      Zn       0.66667    0.33334    0.75000    1.000
    Zn2      Zn       0.33333    0.66666    0.25000    1.000
    H1       H        0.00000    0.56540    0.00000    1.000
    H2       H        0.00000    0.43460    0.50000    1.000
    H3       H        0.56540    0.00000    0.00000    1.000
    H4       H        0.43460    0.43460    0.00000    1.000
    H5       H        0.56540    0.56540    0.50000    1.000
    H6       H        0.43460    0.00000    0.50000    1.000
    C1       C        0.00000    0.43790    0.00000    1.000
    C2       C        0.00000    0.56210    0.50000    1.000
    C3       C        0.56210    0.00000    0.50000    1.000
    C4       C        0.56210    0.56210    0.00000    1.000
    C5       C        0.43790    0.00000    0.00000    1.000
    C6       C        0.43790    0.43790    0.50000    1.000
    O1       O        0.69500    0.11090    0.60480    1.000
    O2       O        0.41590    0.11090    0.89520    1.000
    O3       O        0.58410    0.69500    0.10480    1.000
    O4       O        0.58410    0.88910    0.39520    1.000
    O5       O        0.41590    0.30500    0.60480    1.000
    O6       O        0.11090    0.69500    0.39520    1.000
    O7       O        0.30500    0.88910    0.10480    1.000
    O8       O        0.88910    0.30500    0.89520    1.000
    O9       O        0.30500    0.41590    0.39520    1.000
    O10      O        0.11090    0.41590    0.10480    1.000
    O11      O        0.69500    0.58410    0.89520    1.000
    O12      O        0.88910    0.58410    0.60480    1.000
