# CIF file generated by openbabel 3.1.0, see https://openbabel.org
data_I
_chemical_name_common 'image0'
_cell_length_a 13.5068
_cell_length_b 13.5068
_cell_length_c 8.0676
_cell_angle_alpha 90
_cell_angle_beta 90
_cell_angle_gamma 120
_space_group_name_H-M_alt 'P 1'
_space_group_name_Hall 'P 1'
loop_
    _symmetry_equiv_pos_as_xyz
    x,y,z
loop_
    _atom_site_label
    _atom_site_type_symbol
    _atom_site_fract_x
    _atom_site_fract_y
    _atom_site_fract_z
    _atom_site_occupancy
    Mn1      Mn       0.30249    0.33787    0.54595    1.000
    O1       O        0.22970    0.18051    0.40702    1.000
    C1       C        0.53539    0.32267    0.54860    1.000
    C2       C        0.35424    0.56007    0.77620    1.000
    O2       O        0.24420    0.05708    0.24600    1.000
    C3       C        0.26685    0.15690    0.28060    1.000
    N1       N        0.34672    0.20793    0.00035    1.000
    H1       H        0.41120    0.25590    0.94540    1.000
    H2       H        0.28640    0.19790    0.94000    1.000
    C4       C        0.34553    0.25434    0.16400    1.000
    H3       H        0.42310    0.28670    0.20870    1.000
    N2       N        0.36695    0.42765    0.30300    1.000
    H4       H        0.34970    0.48380    0.29550    1.000
    H5       H        0.44360    0.46050    0.30120    1.000
    C5       C        0.31970    0.35247    0.15620    1.000
    H6       H        0.35280    0.39680    0.05630    1.000
    H7       H        0.23760    0.32150    0.15170    1.000
    N3       N        0.45618    0.32068    0.60580    1.000
    N4       N        0.36840    0.49985    0.69010    1.000
    Mn2      Mn       0.66213    0.96462    0.54595    1.000
    O3       O        0.81949    0.04919    0.40702    1.000
    C6       C        0.67733    0.21272    0.54860    1.000
    C7       C        0.43993    0.79417    0.77620    1.000
    O4       O        0.94292    0.18712    0.24600    1.000
    C8       C        0.84310    0.10995    0.28060    1.000
    N5       N        0.79207    0.13879    0.00035    1.000
    H8       H        0.74410    0.15530    0.94540    1.000
    H9       H        0.80210    0.08850    0.94000    1.000
    C9       C        0.74566    0.09119    0.16400    1.000
    H10      H        0.71330    0.13640    0.20870    1.000
    N6       N        0.57235    0.93930    0.30300    1.000
    H11      H        0.51620    0.86590    0.29550    1.000
    H12      H        0.53950    0.98310    0.30120    1.000
    C10      C        0.64753    0.96723    0.15620    1.000
    H13      H        0.60320    0.95600    0.05630    1.000
    H14      H        0.67850    0.91610    0.15170    1.000
    N7       N        0.67932    0.13550    0.60580    1.000
    N8       N        0.50015    0.86855    0.69010    1.000
    Mn3      Mn       0.03538    0.69751    0.54595    1.000
    O5       O        0.95081    0.77030    0.40702    1.000
    C11      C        0.78728    0.46461    0.54860    1.000
    C12      C        0.20583    0.64576    0.77620    1.000
    O6       O        0.81288    0.75580    0.24600    1.000
    C13      C        0.89005    0.73315    0.28060    1.000
    N9       N        0.86121    0.65328    0.00035    1.000
    H15      H        0.84470    0.58880    0.94540    1.000
    H16      H        0.91150    0.71360    0.94000    1.000
    C14      C        0.90881    0.65447    0.16400    1.000
    H17      H        0.86360    0.57690    0.20870    1.000
    N10      N        0.06070    0.63305    0.30300    1.000
    H18      H        0.13410    0.65030    0.29550    1.000
    H19      H        0.01690    0.55640    0.30120    1.000
    C15      C        0.03277    0.68030    0.15620    1.000
    H20      H        0.04400    0.64720    0.05630    1.000
    H21      H        0.08390    0.76240    0.15170    1.000
    N11      N        0.86450    0.54382    0.60580    1.000
    N12      N        0.13145    0.63160    0.69010    1.000
    Mn4      Mn       0.69751    0.66213    0.04595    1.000
    O7       O        0.77030    0.81949    0.90702    1.000
    C16      C        0.46461    0.67733    0.04860    1.000
    C17      C        0.64576    0.43993    0.27620    1.000
    O8       O        0.75580    0.94292    0.74600    1.000
    C18      C        0.73315    0.84310    0.78060    1.000
    N13      N        0.65328    0.79207    0.50035    1.000
    H22      H        0.58880    0.74410    0.44540    1.000
    H23      H        0.71360    0.80210    0.44000    1.000
    C19      C        0.65447    0.74566    0.66400    1.000
    H24      H        0.57690    0.71330    0.70870    1.000
    N14      N        0.63305    0.57235    0.80300    1.000
    H25      H        0.65030    0.51620    0.79550    1.000
    H26      H        0.55640    0.53950    0.80120    1.000
    C20      C        0.68030    0.64753    0.65620    1.000
    H27      H        0.64720    0.60320    0.55630    1.000
    H28      H        0.76240    0.67850    0.65170    1.000
    N15      N        0.54382    0.67932    0.10580    1.000
    N16      N        0.63160    0.50015    0.19010    1.000
    Mn5      Mn       0.33787    0.03538    0.04595    1.000
    O9       O        0.18051    0.95081    0.90702    1.000
    C21      C        0.32267    0.78728    0.04860    1.000
    C22      C        0.56007    0.20583    0.27620    1.000
    O10      O        0.05708    0.81288    0.74600    1.000
    C23      C        0.15690    0.89005    0.78060    1.000
    N17      N        0.20793    0.86121    0.50035    1.000
    H29      H        0.25590    0.84470    0.44540    1.000
    H30      H        0.19790    0.91150    0.44000    1.000
    C24      C        0.25434    0.90881    0.66400    1.000
    H31      H        0.28670    0.86360    0.70870    1.000
    N18      N        0.42765    0.06070    0.80300    1.000
    H32      H        0.48380    0.13410    0.79550    1.000
    H33      H        0.46050    0.01690    0.80120    1.000
    C25      C        0.35247    0.03277    0.65620    1.000
    H34      H        0.39680    0.04400    0.55630    1.000
    H35      H        0.32150    0.08390    0.65170    1.000
    N19      N        0.32068    0.86450    0.10580    1.000
    N20      N        0.49985    0.13145    0.19010    1.000
    Mn6      Mn       0.96462    0.30249    0.04595    1.000
    O11      O        0.04919    0.22970    0.90702    1.000
    C26      C        0.21272    0.53539    0.04860    1.000
    C27      C        0.79417    0.35424    0.27620    1.000
    O12      O        0.18712    0.24420    0.74600    1.000
    C28      C        0.10995    0.26685    0.78060    1.000
    N21      N        0.13879    0.34672    0.50035    1.000
    H36      H        0.15530    0.41120    0.44540    1.000
    H37      H        0.08850    0.28640    0.44000    1.000
    C29      C        0.09119    0.34553    0.66400    1.000
    H38      H        0.13640    0.42310    0.70870    1.000
    N22      N        0.93930    0.36695    0.80300    1.000
    H39      H        0.86590    0.34970    0.79550    1.000
    H40      H        0.98310    0.44360    0.80120    1.000
    C30      C        0.96723    0.31970    0.65620    1.000
    H41      H        0.95600    0.35280    0.55630    1.000
    H42      H        0.91610    0.23760    0.65170    1.000
    N23      N        0.13550    0.45618    0.10580    1.000
    N24      N        0.86855    0.36840    0.19010    1.000
    Mn7      Mn       0.33333    0.66667    0.92056    1.000
    Mn8      Mn       0.66667    0.33333    0.42056    1.000
