# CIF file generated by openbabel 3.1.0, see https://openbabel.org
data_I
_chemical_name_common 'PEPLOM_clean'
_cell_length_a 6.796
_cell_length_b 10.214
_cell_length_c 18.41
_cell_angle_alpha 90
_cell_angle_beta 90
_cell_angle_gamma 90
_space_group_name_H-M_alt 'P 1'
_space_group_name_Hall 'P 1'
loop_
    _symmetry_equiv_pos_as_xyz
    x,y,z
loop_
    _atom_site_label
    _atom_site_type_symbol
    _atom_site_fract_x
    _atom_site_fract_y
    _atom_site_fract_z
    _atom_site_occupancy
    V1       V        0.80070    0.26770    0.25000    1.000
    V2       V        0.69930    0.76770    0.75000    1.000
    V3       V        0.19930    0.73230    0.75000    1.000
    V4       V        0.30070    0.23230    0.25000    1.000
    H1       H        0.29740    0.02400    0.44210    1.000
    H2       H        0.71410    0.05990    0.44160    1.000
    H3       H        0.20260    0.52400    0.55790    1.000
    H4       H        0.78590    0.55990    0.55840    1.000
    H5       H        0.70260    0.97600    0.94210    1.000
    H6       H        0.28590    0.94010    0.94160    1.000
    H7       H        0.79740    0.47600    0.05790    1.000
    H8       H        0.21410    0.44010    0.05840    1.000
    H9       H        0.70260    0.97600    0.55790    1.000
    H10      H        0.28590    0.94010    0.55840    1.000
    H11      H        0.79740    0.47600    0.44210    1.000
    H12      H        0.21410    0.44010    0.44160    1.000
    H13      H        0.29740    0.02400    0.05790    1.000
    H14      H        0.71410    0.05990    0.05840    1.000
    H15      H        0.20260    0.52400    0.94210    1.000
    H16      H        0.78590    0.55990    0.94160    1.000
    C1       C        0.01380    0.10840    0.35630    1.000
    C2       C        0.00720    0.04770    0.43030    1.000
    C3       C        0.17700    0.01390    0.46540    1.000
    C4       C        0.83000    0.03520    0.46500    1.000
    C5       C        0.48620    0.60840    0.64370    1.000
    C6       C        0.49280    0.54770    0.56970    1.000
    C7       C        0.32300    0.51390    0.53460    1.000
    C8       C        0.67000    0.53520    0.53500    1.000
    C9       C        0.98620    0.89160    0.85630    1.000
    C10      C        0.99280    0.95230    0.93030    1.000
    C11      C        0.82300    0.98610    0.96540    1.000
    C12      C        0.17000    0.96480    0.96500    1.000
    C13      C        0.51380    0.39160    0.14370    1.000
    C14      C        0.50720    0.45230    0.06970    1.000
    C15      C        0.67700    0.48610    0.03460    1.000
    C16      C        0.33000    0.46480    0.03500    1.000
    C17      C        0.98620    0.89160    0.64370    1.000
    C18      C        0.99280    0.95230    0.56970    1.000
    C19      C        0.82300    0.98610    0.53460    1.000
    C20      C        0.17000    0.96480    0.53500    1.000
    C21      C        0.51380    0.39160    0.35630    1.000
    C22      C        0.50720    0.45230    0.43030    1.000
    C23      C        0.67700    0.48610    0.46540    1.000
    C24      C        0.33000    0.46480    0.46500    1.000
    C25      C        0.01380    0.10840    0.14370    1.000
    C26      C        0.00720    0.04770    0.06970    1.000
    C27      C        0.17700    0.01390    0.03460    1.000
    C28      C        0.83000    0.03520    0.03500    1.000
    C29      C        0.48620    0.60840    0.85630    1.000
    C30      C        0.49280    0.54770    0.93030    1.000
    C31      C        0.32300    0.51390    0.96540    1.000
    C32      C        0.67000    0.53520    0.96500    1.000
    O1       O        0.85170    0.13970    0.32750    1.000
    O2       O        0.18070    0.12420    0.32830    1.000
    O3       O        0.64830    0.63970    0.67250    1.000
    O4       O        0.31930    0.62420    0.67170    1.000
    O5       O        0.14830    0.86030    0.82750    1.000
    O6       O        0.81930    0.87580    0.82830    1.000
    O7       O        0.35170    0.36030    0.17250    1.000
    O8       O        0.68070    0.37580    0.17170    1.000
    O9       O        0.14830    0.86030    0.67250    1.000
    O10      O        0.81930    0.87580    0.67170    1.000
    O11      O        0.35170    0.36030    0.32750    1.000
    O12      O        0.68070    0.37580    0.32830    1.000
    O13      O        0.85170    0.13970    0.17250    1.000
    O14      O        0.18070    0.12420    0.17170    1.000
    O15      O        0.64830    0.63970    0.82750    1.000
    O16      O        0.31930    0.62420    0.82830    1.000
    O17      O        0.01600    0.32840    0.25000    1.000
    O18      O        0.48400    0.82840    0.75000    1.000
    O19      O        0.98400    0.67160    0.75000    1.000
    O20      O        0.51600    0.17160    0.25000    1.000
