# CIF file generated by openbabel 3.1.0, see https://openbabel.org
data_I
_chemical_name_common 'VUNYUZ_clean'
_cell_length_a 20.5223
_cell_length_b 20.5223
_cell_length_c 20.5223
_cell_angle_alpha 90
_cell_angle_beta 90
_cell_angle_gamma 90
_space_group_name_H-M_alt 'P 1'
_space_group_name_Hall 'P 1'
loop_
    _symmetry_equiv_pos_as_xyz
    x,y,z
loop_
    _atom_site_label
    _atom_site_type_symbol
    _atom_site_fract_x
    _atom_site_fract_y
    _atom_site_fract_z
    _atom_site_occupancy
    Zn1      Zn       0.16283    0.10087    0.64202    1.000
    Zn2      Zn       0.27718    0.00549    0.56126    1.000
    Zn3      Zn       0.33717    0.89913    0.14202    1.000
    Zn4      Zn       0.22282    0.99451    0.06126    1.000
    Zn5      Zn       0.83717    0.60087    0.85798    1.000
    Zn6      Zn       0.72282    0.50549    0.93874    1.000
    Zn7      Zn       0.66283    0.39913    0.35798    1.000
    Zn8      Zn       0.77718    0.49451    0.43874    1.000
    Zn9      Zn       0.64202    0.16283    0.10087    1.000
    Zn10     Zn       0.56126    0.27718    0.00549    1.000
    Zn11     Zn       0.14202    0.33717    0.89913    1.000
    Zn12     Zn       0.06126    0.22282    0.99451    1.000
    Zn13     Zn       0.85798    0.83717    0.60087    1.000
    Zn14     Zn       0.93874    0.72282    0.50549    1.000
    Zn15     Zn       0.35798    0.66283    0.39913    1.000
    Zn16     Zn       0.43874    0.77718    0.49451    1.000
    Zn17     Zn       0.10087    0.64202    0.16283    1.000
    Zn18     Zn       0.00549    0.56126    0.27718    1.000
    Zn19     Zn       0.89913    0.14202    0.33717    1.000
    Zn20     Zn       0.99451    0.06126    0.22282    1.000
    Zn21     Zn       0.60087    0.85798    0.83717    1.000
    Zn22     Zn       0.50549    0.93874    0.72282    1.000
    Zn23     Zn       0.39913    0.35798    0.66283    1.000
    Zn24     Zn       0.49451    0.43874    0.77718    1.000
    Zn25     Zn       0.83717    0.89913    0.35798    1.000
    Zn26     Zn       0.72282    0.99451    0.43874    1.000
    Zn27     Zn       0.66283    0.10087    0.85798    1.000
    Zn28     Zn       0.77718    0.00549    0.93874    1.000
    Zn29     Zn       0.16283    0.39913    0.14202    1.000
    Zn30     Zn       0.27718    0.49451    0.06126    1.000
    Zn31     Zn       0.33717    0.60087    0.64202    1.000
    Zn32     Zn       0.22282    0.50549    0.56126    1.000
    Zn33     Zn       0.35798    0.83717    0.89913    1.000
    Zn34     Zn       0.43874    0.72282    0.99451    1.000
    Zn35     Zn       0.85798    0.66283    0.10087    1.000
    Zn36     Zn       0.93874    0.77718    0.00549    1.000
    Zn37     Zn       0.14202    0.16283    0.39913    1.000
    Zn38     Zn       0.06126    0.27718    0.49451    1.000
    Zn39     Zn       0.64202    0.33717    0.60087    1.000
    Zn40     Zn       0.56126    0.22282    0.50549    1.000
    Zn41     Zn       0.89913    0.35798    0.83717    1.000
    Zn42     Zn       0.99451    0.43874    0.72282    1.000
    Zn43     Zn       0.10087    0.85798    0.66283    1.000
    Zn44     Zn       0.00549    0.93874    0.77718    1.000
    Zn45     Zn       0.39913    0.14202    0.16283    1.000
    Zn46     Zn       0.49451    0.06126    0.27718    1.000
    Zn47     Zn       0.60087    0.64202    0.33717    1.000
    Zn48     Zn       0.50549    0.56126    0.22282    1.000
    H1       H        0.33880    0.19260    0.50270    1.000
    H2       H        0.37810    0.20010    0.62050    1.000
    H3       H        0.23690    0.30580    0.61090    1.000
    H4       H        0.30050    0.29280    0.49140    1.000
    H5       H        0.16120    0.80740    0.00270    1.000
    H6       H        0.12190    0.79990    0.12050    1.000
    H7       H        0.26310    0.69420    0.11090    1.000
    H8       H        0.19950    0.70720    0.99140    1.000
    H9       H        0.66120    0.69260    0.99730    1.000
    H10      H        0.62190    0.70010    0.87950    1.000
    H11      H        0.76310    0.80580    0.88910    1.000
    H12      H        0.69950    0.79280    0.00860    1.000
    H13      H        0.83880    0.30740    0.49730    1.000
    H14      H        0.87810    0.29990    0.37950    1.000
    H15      H        0.73690    0.19420    0.38910    1.000
    H16      H        0.80050    0.20720    0.50860    1.000
    H17      H        0.50270    0.33880    0.19260    1.000
    H18      H        0.62050    0.37810    0.20010    1.000
    H19      H        0.61090    0.23690    0.30580    1.000
    H20      H        0.49140    0.30050    0.29280    1.000
    H21      H        0.00270    0.16120    0.80740    1.000
    H22      H        0.12050    0.12190    0.79990    1.000
    H23      H        0.11090    0.26310    0.69420    1.000
    H24      H        0.99140    0.19950    0.70720    1.000
    H25      H        0.99730    0.66120    0.69260    1.000
    H26      H        0.87950    0.62190    0.70010    1.000
    H27      H        0.88910    0.76310    0.80580    1.000
    H28      H        0.00860    0.69950    0.79280    1.000
    H29      H        0.49730    0.83880    0.30740    1.000
    H30      H        0.37950    0.87810    0.29990    1.000
    H31      H        0.38910    0.73690    0.19420    1.000
    H32      H        0.50860    0.80050    0.20720    1.000
    H33      H        0.19260    0.50270    0.33880    1.000
    H34      H        0.20010    0.62050    0.37810    1.000
    H35      H        0.30580    0.61090    0.23690    1.000
    H36      H        0.29280    0.49140    0.30050    1.000
    H37      H        0.80740    0.00270    0.16120    1.000
    H38      H        0.79990    0.12050    0.12190    1.000
    H39      H        0.69420    0.11090    0.26310    1.000
    H40      H        0.70720    0.99140    0.19950    1.000
    H41      H        0.69260    0.99730    0.66120    1.000
    H42      H        0.70010    0.87950    0.62190    1.000
    H43      H        0.80580    0.88910    0.76310    1.000
    H44      H        0.79280    0.00860    0.69950    1.000
    H45      H        0.30740    0.49730    0.83880    1.000
    H46      H        0.29990    0.37950    0.87810    1.000
    H47      H        0.19420    0.38910    0.73690    1.000
    H48      H        0.20720    0.50860    0.80050    1.000
    H49      H        0.66120    0.80740    0.49730    1.000
    H50      H        0.62190    0.79990    0.37950    1.000
    H51      H        0.76310    0.69420    0.38910    1.000
    H52      H        0.69950    0.70720    0.50860    1.000
    H53      H        0.83880    0.19260    0.99730    1.000
    H54      H        0.87810    0.20010    0.87950    1.000
    H55      H        0.73690    0.30580    0.88910    1.000
    H56      H        0.80050    0.29280    0.00860    1.000
    H57      H        0.33880    0.30740    0.00270    1.000
    H58      H        0.37810    0.29990    0.12050    1.000
    H59      H        0.23690    0.19420    0.11090    1.000
    H60      H        0.30050    0.20720    0.99140    1.000
    H61      H        0.16120    0.69260    0.50270    1.000
    H62      H        0.12190    0.70010    0.62050    1.000
    H63      H        0.26310    0.80580    0.61090    1.000
    H64      H        0.19950    0.79280    0.49140    1.000
    H65      H        0.49730    0.66120    0.80740    1.000
    H66      H        0.37950    0.62190    0.79990    1.000
    H67      H        0.38910    0.76310    0.69420    1.000
    H68      H        0.50860    0.69950    0.70720    1.000
    H69      H        0.99730    0.83880    0.19260    1.000
    H70      H        0.87950    0.87810    0.20010    1.000
    H71      H        0.88910    0.73690    0.30580    1.000
    H72      H        0.00860    0.80050    0.29280    1.000
    H73      H        0.00270    0.33880    0.30740    1.000
    H74      H        0.12050    0.37810    0.29990    1.000
    H75      H        0.11090    0.23690    0.19420    1.000
    H76      H        0.99140    0.30050    0.20720    1.000
    H77      H        0.50270    0.16120    0.69260    1.000
    H78      H        0.62050    0.12190    0.70010    1.000
    H79      H        0.61090    0.26310    0.80580    1.000
    H80      H        0.49140    0.19950    0.79280    1.000
    H81      H        0.80740    0.49730    0.66120    1.000
    H82      H        0.79990    0.37950    0.62190    1.000
    H83      H        0.69420    0.38910    0.76310    1.000
    H84      H        0.70720    0.50860    0.69950    1.000
    H85      H        0.19260    0.99730    0.83880    1.000
    H86      H        0.20010    0.87950    0.87810    1.000
    H87      H        0.30580    0.88910    0.73690    1.000
    H88      H        0.29280    0.00860    0.80050    1.000
    H89      H        0.30740    0.00270    0.33880    1.000
    H90      H        0.29990    0.12050    0.37810    1.000
    H91      H        0.19420    0.11090    0.23690    1.000
    H92      H        0.20720    0.99140    0.30050    1.000
    H93      H        0.69260    0.50270    0.16120    1.000
    H94      H        0.70010    0.62050    0.12190    1.000
    H95      H        0.80580    0.61090    0.26310    1.000
    H96      H        0.79280    0.49140    0.19950    1.000
    C1       C        0.31638    0.20876    0.54158    1.000
    C2       C        0.36616    0.23550    0.59070    1.000
    C3       C        0.27830    0.31038    0.58758    1.000
    C4       C        0.27624    0.26881    0.52475    1.000
    C5       C        0.27876    0.15341    0.57436    1.000
    C6       C        0.29074    0.38207    0.57383    1.000
    C7       C        0.42865    0.26290    0.56111    1.000
    C8       C        0.20934    0.25340    0.49598    1.000
    C9       C        0.18362    0.79124    0.04158    1.000
    C10      C        0.13384    0.76450    0.09070    1.000
    C11      C        0.22170    0.68962    0.08758    1.000
    C12      C        0.22376    0.73119    0.02475    1.000
    C13      C        0.22124    0.84659    0.07436    1.000
    C14      C        0.20926    0.61793    0.07383    1.000
    C15      C        0.07135    0.73710    0.06111    1.000
    C16      C        0.29066    0.74660    0.99598    1.000
    C17      C        0.68362    0.70876    0.95842    1.000
    C18      C        0.63384    0.73550    0.90930    1.000
    C19      C        0.72170    0.81038    0.91242    1.000
    C20      C        0.72376    0.76881    0.97525    1.000
    C21      C        0.72124    0.65341    0.92564    1.000
    C22      C        0.70926    0.88207    0.92617    1.000
    C23      C        0.57135    0.76290    0.93889    1.000
    C24      C        0.79066    0.75340    0.00402    1.000
    C25      C        0.81638    0.29124    0.45842    1.000
    C26      C        0.86616    0.26450    0.40930    1.000
    C27      C        0.77830    0.18962    0.41242    1.000
    C28      C        0.77624    0.23119    0.47525    1.000
    C29      C        0.77876    0.34659    0.42564    1.000
    C30      C        0.79074    0.11793    0.42617    1.000
    C31      C        0.92865    0.23710    0.43889    1.000
    C32      C        0.70934    0.24660    0.50402    1.000
    C33      C        0.54158    0.31638    0.20876    1.000
    C34      C        0.59070    0.36616    0.23550    1.000
    C35      C        0.58758    0.27830    0.31038    1.000
    C36      C        0.52475    0.27624    0.26881    1.000
    C37      C        0.57436    0.27876    0.15341    1.000
    C38      C        0.57383    0.29074    0.38207    1.000
    C39      C        0.56111    0.42865    0.26290    1.000
    C40      C        0.49598    0.20934    0.25340    1.000
    C41      C        0.04158    0.18362    0.79124    1.000
    C42      C        0.09070    0.13384    0.76450    1.000
    C43      C        0.08758    0.22170    0.68962    1.000
    C44      C        0.02475    0.22376    0.73119    1.000
    C45      C        0.07436    0.22124    0.84659    1.000
    C46      C        0.07383    0.20926    0.61793    1.000
    C47      C        0.06111    0.07135    0.73710    1.000
    C48      C        0.99598    0.29066    0.74660    1.000
    C49      C        0.95842    0.68362    0.70876    1.000
    C50      C        0.90930    0.63384    0.73550    1.000
    C51      C        0.91242    0.72170    0.81038    1.000
    C52      C        0.97525    0.72376    0.76881    1.000
    C53      C        0.92564    0.72124    0.65341    1.000
    C54      C        0.92617    0.70926    0.88207    1.000
    C55      C        0.93889    0.57135    0.76290    1.000
    C56      C        0.00402    0.79066    0.75340    1.000
    C57      C        0.45842    0.81638    0.29124    1.000
    C58      C        0.40930    0.86616    0.26450    1.000
    C59      C        0.41242    0.77830    0.18962    1.000
    C60      C        0.47525    0.77624    0.23119    1.000
    C61      C        0.42564    0.77876    0.34659    1.000
    C62      C        0.42617    0.79074    0.11793    1.000
    C63      C        0.43889    0.92865    0.23710    1.000
    C64      C        0.50402    0.70934    0.24660    1.000
    C65      C        0.20876    0.54158    0.31638    1.000
    C66      C        0.23550    0.59070    0.36616    1.000
    C67      C        0.31038    0.58758    0.27830    1.000
    C68      C        0.26881    0.52475    0.27624    1.000
    C69      C        0.15341    0.57436    0.27876    1.000
    C70      C        0.38207    0.57383    0.29074    1.000
    C71      C        0.26290    0.56111    0.42865    1.000
    C72      C        0.25340    0.49598    0.20934    1.000
    C73      C        0.79124    0.04158    0.18362    1.000
    C74      C        0.76450    0.09070    0.13384    1.000
    C75      C        0.68962    0.08758    0.22170    1.000
    C76      C        0.73119    0.02475    0.22376    1.000
    C77      C        0.84659    0.07436    0.22124    1.000
    C78      C        0.61793    0.07383    0.20926    1.000
    C79      C        0.73710    0.06111    0.07135    1.000
    C80      C        0.74660    0.99598    0.29066    1.000
    C81      C        0.70876    0.95842    0.68362    1.000
    C82      C        0.73550    0.90930    0.63384    1.000
    C83      C        0.81038    0.91242    0.72170    1.000
    C84      C        0.76881    0.97525    0.72376    1.000
    C85      C        0.65341    0.92564    0.72124    1.000
    C86      C        0.88207    0.92617    0.70926    1.000
    C87      C        0.76290    0.93889    0.57135    1.000
    C88      C        0.75340    0.00402    0.79066    1.000
    C89      C        0.29124    0.45842    0.81638    1.000
    C90      C        0.26450    0.40930    0.86616    1.000
    C91      C        0.18962    0.41242    0.77830    1.000
    C92      C        0.23119    0.47525    0.77624    1.000
    C93      C        0.34659    0.42564    0.77876    1.000
    C94      C        0.11793    0.42617    0.79074    1.000
    C95      C        0.23710    0.43889    0.92865    1.000
    C96      C        0.24660    0.50402    0.70934    1.000
    C97      C        0.68362    0.79124    0.45842    1.000
    C98      C        0.63384    0.76450    0.40930    1.000
    C99      C        0.72170    0.68962    0.41242    1.000
    C100     C        0.72376    0.73119    0.47525    1.000
    C101     C        0.72124    0.84659    0.42564    1.000
    C102     C        0.70926    0.61793    0.42617    1.000
    C103     C        0.57135    0.73710    0.43889    1.000
    C104     C        0.79066    0.74660    0.50402    1.000
    C105     C        0.81638    0.20876    0.95842    1.000
    C106     C        0.86616    0.23550    0.90930    1.000
    C107     C        0.77830    0.31038    0.91242    1.000
    C108     C        0.77624    0.26881    0.97525    1.000
    C109     C        0.77876    0.15341    0.92564    1.000
    C110     C        0.79074    0.38207    0.92617    1.000
    C111     C        0.92865    0.26290    0.93889    1.000
    C112     C        0.70934    0.25340    0.00402    1.000
    C113     C        0.31638    0.29124    0.04158    1.000
    C114     C        0.36616    0.26450    0.09070    1.000
    C115     C        0.27830    0.18962    0.08758    1.000
    C116     C        0.27624    0.23119    0.02475    1.000
    C117     C        0.27876    0.34659    0.07436    1.000
    C118     C        0.29074    0.11793    0.07383    1.000
    C119     C        0.42865    0.23710    0.06111    1.000
    C120     C        0.20934    0.24660    0.99598    1.000
    C121     C        0.18362    0.70876    0.54158    1.000
    C122     C        0.13384    0.73550    0.59070    1.000
    C123     C        0.22170    0.81038    0.58758    1.000
    C124     C        0.22376    0.76881    0.52475    1.000
    C125     C        0.22124    0.65341    0.57436    1.000
    C126     C        0.20926    0.88207    0.57383    1.000
    C127     C        0.07135    0.76290    0.56111    1.000
    C128     C        0.29066    0.75340    0.49598    1.000
    C129     C        0.45842    0.68362    0.79124    1.000
    C130     C        0.40930    0.63384    0.76450    1.000
    C131     C        0.41242    0.72170    0.68962    1.000
    C132     C        0.47525    0.72376    0.73119    1.000
    C133     C        0.42564    0.72124    0.84659    1.000
    C134     C        0.42617    0.70926    0.61793    1.000
    C135     C        0.43889    0.57135    0.73710    1.000
    C136     C        0.50402    0.79066    0.74660    1.000
    C137     C        0.95842    0.81638    0.20876    1.000
    C138     C        0.90930    0.86616    0.23550    1.000
    C139     C        0.91242    0.77830    0.31038    1.000
    C140     C        0.97525    0.77624    0.26881    1.000
    C141     C        0.92564    0.77876    0.15341    1.000
    C142     C        0.92617    0.79074    0.38207    1.000
    C143     C        0.93889    0.92865    0.26290    1.000
    C144     C        0.00402    0.70934    0.25340    1.000
    C145     C        0.04158    0.31638    0.29124    1.000
    C146     C        0.09070    0.36616    0.26450    1.000
    C147     C        0.08758    0.27830    0.18962    1.000
    C148     C        0.02475    0.27624    0.23119    1.000
    C149     C        0.07436    0.27876    0.34659    1.000
    C150     C        0.07383    0.29074    0.11793    1.000
    C151     C        0.06111    0.42865    0.23710    1.000
    C152     C        0.99598    0.20934    0.24660    1.000
    C153     C        0.54158    0.18362    0.70876    1.000
    C154     C        0.59070    0.13384    0.73550    1.000
    C155     C        0.58758    0.22170    0.81038    1.000
    C156     C        0.52475    0.22376    0.76881    1.000
    C157     C        0.57436    0.22124    0.65341    1.000
    C158     C        0.57383    0.20926    0.88207    1.000
    C159     C        0.56111    0.07135    0.76290    1.000
    C160     C        0.49598    0.29066    0.75340    1.000
    C161     C        0.79124    0.45842    0.68362    1.000
    C162     C        0.76450    0.40930    0.63384    1.000
    C163     C        0.68962    0.41242    0.72170    1.000
    C164     C        0.73119    0.47525    0.72376    1.000
    C165     C        0.84659    0.42564    0.72124    1.000
    C166     C        0.61793    0.42617    0.70926    1.000
    C167     C        0.73710    0.43889    0.57135    1.000
    C168     C        0.74660    0.50402    0.79066    1.000
    C169     C        0.20876    0.95842    0.81638    1.000
    C170     C        0.23550    0.90930    0.86616    1.000
    C171     C        0.31038    0.91242    0.77830    1.000
    C172     C        0.26881    0.97525    0.77624    1.000
    C173     C        0.15341    0.92564    0.77876    1.000
    C174     C        0.38207    0.92617    0.79074    1.000
    C175     C        0.26290    0.93889    0.92865    1.000
    C176     C        0.25340    0.00402    0.70934    1.000
    C177     C        0.29124    0.04158    0.31638    1.000
    C178     C        0.26450    0.09070    0.36616    1.000
    C179     C        0.18962    0.08758    0.27830    1.000
    C180     C        0.23119    0.02475    0.27624    1.000
    C181     C        0.34659    0.07436    0.27876    1.000
    C182     C        0.11793    0.07383    0.29074    1.000
    C183     C        0.23710    0.06111    0.42865    1.000
    C184     C        0.24660    0.99598    0.20934    1.000
    C185     C        0.70876    0.54158    0.18362    1.000
    C186     C        0.73550    0.59070    0.13384    1.000
    C187     C        0.81038    0.58758    0.22170    1.000
    C188     C        0.76881    0.52475    0.22376    1.000
    C189     C        0.65341    0.57436    0.22124    1.000
    C190     C        0.88207    0.57383    0.20926    1.000
    C191     C        0.76290    0.56111    0.07135    1.000
    C192     C        0.75340    0.49598    0.29066    1.000
    O1       O        0.22765    0.16639    0.60451    1.000
    O2       O        0.30419    0.09908    0.57060    1.000
    O3       O        0.24543    0.41045    0.54304    1.000
    O4       O        0.34190    0.40845    0.59259    1.000
    O5       O        0.44776    0.31826    0.57961    1.000
    O6       O        0.45805    0.22745    0.52193    1.000
    O7       O        0.21053    0.21397    0.44910    1.000
    O8       O        0.15979    0.28095    0.51853    1.000
    O9       O        0.33076    0.28392    0.62742    1.000
    O10      O        0.27235    0.83361    0.10451    1.000
    O11      O        0.19581    0.90092    0.07060    1.000
    O12      O        0.25457    0.58955    0.04304    1.000
    O13      O        0.15810    0.59155    0.09259    1.000
    O14      O        0.05224    0.68174    0.07961    1.000
    O15      O        0.04195    0.77255    0.02193    1.000
    O16      O        0.28947    0.78603    0.94910    1.000
    O17      O        0.34021    0.71905    0.01853    1.000
    O18      O        0.16924    0.71608    0.12742    1.000
    O19      O        0.77235    0.66639    0.89549    1.000
    O20      O        0.69581    0.59908    0.92940    1.000
    O21      O        0.75457    0.91045    0.95696    1.000
    O22      O        0.65810    0.90845    0.90741    1.000
    O23      O        0.55224    0.81826    0.92039    1.000
    O24      O        0.54195    0.72745    0.97807    1.000
    O25      O        0.78947    0.71397    0.05090    1.000
    O26      O        0.84021    0.78095    0.98147    1.000
    O27      O        0.66924    0.78392    0.87258    1.000
    O28      O        0.72765    0.33361    0.39549    1.000
    O29      O        0.80419    0.40092    0.42940    1.000
    O30      O        0.74543    0.08955    0.45696    1.000
    O31      O        0.84190    0.09155    0.40741    1.000
    O32      O        0.94776    0.18174    0.42039    1.000
    O33      O        0.95805    0.27255    0.47807    1.000
    O34      O        0.71053    0.28603    0.55090    1.000
    O35      O        0.65979    0.21905    0.48147    1.000
    O36      O        0.83076    0.21608    0.37258    1.000
    O37      O        0.60451    0.22765    0.16639    1.000
    O38      O        0.57060    0.30419    0.09908    1.000
    O39      O        0.54304    0.24543    0.41045    1.000
    O40      O        0.59259    0.34190    0.40845    1.000
    O41      O        0.57961    0.44776    0.31826    1.000
    O42      O        0.52193    0.45805    0.22745    1.000
    O43      O        0.44910    0.21053    0.21397    1.000
    O44      O        0.51853    0.15979    0.28095    1.000
    O45      O        0.62742    0.33076    0.28392    1.000
    O46      O        0.10451    0.27235    0.83361    1.000
    O47      O        0.07060    0.19581    0.90092    1.000
    O48      O        0.04304    0.25457    0.58955    1.000
    O49      O        0.09259    0.15810    0.59155    1.000
    O50      O        0.07961    0.05224    0.68174    1.000
    O51      O        0.02193    0.04195    0.77255    1.000
    O52      O        0.94910    0.28947    0.78603    1.000
    O53      O        0.01853    0.34021    0.71905    1.000
    O54      O        0.12742    0.16924    0.71608    1.000
    O55      O        0.89549    0.77235    0.66639    1.000
    O56      O        0.92940    0.69581    0.59908    1.000
    O57      O        0.95696    0.75457    0.91045    1.000
    O58      O        0.90741    0.65810    0.90845    1.000
    O59      O        0.92039    0.55224    0.81826    1.000
    O60      O        0.97807    0.54195    0.72745    1.000
    O61      O        0.05090    0.78947    0.71397    1.000
    O62      O        0.98147    0.84021    0.78095    1.000
    O63      O        0.87258    0.66924    0.78392    1.000
    O64      O        0.39549    0.72765    0.33361    1.000
    O65      O        0.42940    0.80419    0.40092    1.000
    O66      O        0.45696    0.74543    0.08955    1.000
    O67      O        0.40741    0.84190    0.09155    1.000
    O68      O        0.42039    0.94776    0.18174    1.000
    O69      O        0.47807    0.95805    0.27255    1.000
    O70      O        0.55090    0.71053    0.28603    1.000
    O71      O        0.48147    0.65979    0.21905    1.000
    O72      O        0.37258    0.83076    0.21608    1.000
    O73      O        0.16639    0.60451    0.22765    1.000
    O74      O        0.09908    0.57060    0.30419    1.000
    O75      O        0.41045    0.54304    0.24543    1.000
    O76      O        0.40845    0.59259    0.34190    1.000
    O77      O        0.31826    0.57961    0.44776    1.000
    O78      O        0.22745    0.52193    0.45805    1.000
    O79      O        0.21397    0.44910    0.21053    1.000
    O80      O        0.28095    0.51853    0.15979    1.000
    O81      O        0.28392    0.62742    0.33076    1.000
    O82      O        0.83361    0.10451    0.27235    1.000
    O83      O        0.90092    0.07060    0.19581    1.000
    O84      O        0.58955    0.04304    0.25457    1.000
    O85      O        0.59155    0.09259    0.15810    1.000
    O86      O        0.68174    0.07961    0.05224    1.000
    O87      O        0.77255    0.02193    0.04195    1.000
    O88      O        0.78603    0.94910    0.28947    1.000
    O89      O        0.71905    0.01853    0.34021    1.000
    O90      O        0.71608    0.12742    0.16924    1.000
    O91      O        0.66639    0.89549    0.77235    1.000
    O92      O        0.59908    0.92940    0.69581    1.000
    O93      O        0.91045    0.95696    0.75457    1.000
    O94      O        0.90845    0.90741    0.65810    1.000
    O95      O        0.81826    0.92039    0.55224    1.000
    O96      O        0.72745    0.97807    0.54195    1.000
    O97      O        0.71397    0.05090    0.78947    1.000
    O98      O        0.78095    0.98147    0.84021    1.000
    O99      O        0.78392    0.87258    0.66924    1.000
    O100     O        0.33361    0.39549    0.72765    1.000
    O101     O        0.40092    0.42940    0.80419    1.000
    O102     O        0.08955    0.45696    0.74543    1.000
    O103     O        0.09155    0.40741    0.84190    1.000
    O104     O        0.18174    0.42039    0.94776    1.000
    O105     O        0.27255    0.47807    0.95805    1.000
    O106     O        0.28603    0.55090    0.71053    1.000
    O107     O        0.21905    0.48147    0.65979    1.000
    O108     O        0.21608    0.37258    0.83076    1.000
    O109     O        0.77235    0.83361    0.39549    1.000
    O110     O        0.69581    0.90092    0.42940    1.000
    O111     O        0.75457    0.58955    0.45696    1.000
    O112     O        0.65810    0.59155    0.40741    1.000
    O113     O        0.55224    0.68174    0.42039    1.000
    O114     O        0.54195    0.77255    0.47807    1.000
    O115     O        0.78947    0.78603    0.55090    1.000
    O116     O        0.84021    0.71905    0.48147    1.000
    O117     O        0.66924    0.71608    0.37258    1.000
    O118     O        0.72765    0.16639    0.89549    1.000
    O119     O        0.80419    0.09908    0.92940    1.000
    O120     O        0.74543    0.41045    0.95696    1.000
    O121     O        0.84190    0.40845    0.90741    1.000
    O122     O        0.94776    0.31826    0.92039    1.000
    O123     O        0.95805    0.22745    0.97807    1.000
    O124     O        0.71053    0.21397    0.05090    1.000
    O125     O        0.65979    0.28095    0.98147    1.000
    O126     O        0.83076    0.28392    0.87258    1.000
    O127     O        0.22765    0.33361    0.10451    1.000
    O128     O        0.30419    0.40092    0.07060    1.000
    O129     O        0.24543    0.08955    0.04304    1.000
    O130     O        0.34190    0.09155    0.09259    1.000
    O131     O        0.44776    0.18174    0.07961    1.000
    O132     O        0.45805    0.27255    0.02193    1.000
    O133     O        0.21053    0.28603    0.94910    1.000
    O134     O        0.15979    0.21905    0.01853    1.000
    O135     O        0.33076    0.21608    0.12742    1.000
    O136     O        0.27235    0.66639    0.60451    1.000
    O137     O        0.19581    0.59908    0.57060    1.000
    O138     O        0.25457    0.91045    0.54304    1.000
    O139     O        0.15810    0.90845    0.59259    1.000
    O140     O        0.05224    0.81826    0.57961    1.000
    O141     O        0.04195    0.72745    0.52193    1.000
    O142     O        0.28947    0.71397    0.44910    1.000
    O143     O        0.34021    0.78095    0.51853    1.000
    O144     O        0.16924    0.78392    0.62742    1.000
    O145     O        0.39549    0.77235    0.83361    1.000
    O146     O        0.42940    0.69581    0.90092    1.000
    O147     O        0.45696    0.75457    0.58955    1.000
    O148     O        0.40741    0.65810    0.59155    1.000
    O149     O        0.42039    0.55224    0.68174    1.000
    O150     O        0.47807    0.54195    0.77255    1.000
    O151     O        0.55090    0.78947    0.78603    1.000
    O152     O        0.48147    0.84021    0.71905    1.000
    O153     O        0.37258    0.66924    0.71608    1.000
    O154     O        0.89549    0.72765    0.16639    1.000
    O155     O        0.92940    0.80419    0.09908    1.000
    O156     O        0.95696    0.74543    0.41045    1.000
    O157     O        0.90741    0.84190    0.40845    1.000
    O158     O        0.92039    0.94776    0.31826    1.000
    O159     O        0.97807    0.95805    0.22745    1.000
    O160     O        0.05090    0.71053    0.21397    1.000
    O161     O        0.98147    0.65979    0.28095    1.000
    O162     O        0.87258    0.83076    0.28392    1.000
    O163     O        0.10451    0.22765    0.33361    1.000
    O164     O        0.07060    0.30419    0.40092    1.000
    O165     O        0.04304    0.24543    0.08955    1.000
    O166     O        0.09259    0.34190    0.09155    1.000
    O167     O        0.07961    0.44776    0.18174    1.000
    O168     O        0.02193    0.45805    0.27255    1.000
    O169     O        0.94910    0.21053    0.28603    1.000
    O170     O        0.01853    0.15979    0.21905    1.000
    O171     O        0.12742    0.33076    0.21608    1.000
    O172     O        0.60451    0.27235    0.66639    1.000
    O173     O        0.57060    0.19581    0.59908    1.000
    O174     O        0.54304    0.25457    0.91045    1.000
    O175     O        0.59259    0.15810    0.90845    1.000
    O176     O        0.57961    0.05224    0.81826    1.000
    O177     O        0.52193    0.04195    0.72745    1.000
    O178     O        0.44910    0.28947    0.71397    1.000
    O179     O        0.51853    0.34021    0.78095    1.000
    O180     O        0.62742    0.16924    0.78392    1.000
    O181     O        0.83361    0.39549    0.77235    1.000
    O182     O        0.90092    0.42940    0.69581    1.000
    O183     O        0.58955    0.45696    0.75457    1.000
    O184     O        0.59155    0.40741    0.65810    1.000
    O185     O        0.68174    0.42039    0.55224    1.000
    O186     O        0.77255    0.47807    0.54195    1.000
    O187     O        0.78603    0.55090    0.78947    1.000
    O188     O        0.71905    0.48147    0.84021    1.000
    O189     O        0.71608    0.37258    0.66924    1.000
    O190     O        0.16639    0.89549    0.72765    1.000
    O191     O        0.09908    0.92940    0.80419    1.000
    O192     O        0.41045    0.95696    0.74543    1.000
    O193     O        0.40845    0.90741    0.84190    1.000
    O194     O        0.31826    0.92039    0.94776    1.000
    O195     O        0.22745    0.97807    0.95805    1.000
    O196     O        0.21397    0.05090    0.71053    1.000
    O197     O        0.28095    0.98147    0.65979    1.000
    O198     O        0.28392    0.87258    0.83076    1.000
    O199     O        0.33361    0.10451    0.22765    1.000
    O200     O        0.40092    0.07060    0.30419    1.000
    O201     O        0.08955    0.04304    0.24543    1.000
    O202     O        0.09155    0.09259    0.34190    1.000
    O203     O        0.18174    0.07961    0.44776    1.000
    O204     O        0.27255    0.02193    0.45805    1.000
    O205     O        0.28603    0.94910    0.21053    1.000
    O206     O        0.21905    0.01853    0.15979    1.000
    O207     O        0.21608    0.12742    0.33076    1.000
    O208     O        0.66639    0.60451    0.27235    1.000
    O209     O        0.59908    0.57060    0.19581    1.000
    O210     O        0.91045    0.54304    0.25457    1.000
    O211     O        0.90845    0.59259    0.15810    1.000
    O212     O        0.81826    0.57961    0.05224    1.000
    O213     O        0.72745    0.52193    0.04195    1.000
    O214     O        0.71397    0.44910    0.28947    1.000
    O215     O        0.78095    0.51853    0.34021    1.000
    O216     O        0.78392    0.62742    0.16924    1.000
