# CIF file generated by openbabel 3.1.0, see https://openbabel.org
data_I
_chemical_name_common 'ic401157n_si_003_clean'
_cell_length_a 7.9129
_cell_length_b 20.418
_cell_length_c 33.5158
_cell_angle_alpha 89.8903
_cell_angle_beta 90
_cell_angle_gamma 90
_space_group_name_H-M_alt 'P 1'
_space_group_name_Hall 'P 1'
loop_
    _symmetry_equiv_pos_as_xyz
    x,y,z
loop_
    _atom_site_label
    _atom_site_type_symbol
    _atom_site_fract_x
    _atom_site_fract_y
    _atom_site_fract_z
    _atom_site_occupancy
    Y1       Y        0.74007    0.48777    0.01649    1.000
    Y2       Y        0.25993    0.98777    0.51649    1.000
    Y3       Y        0.74007    0.01223    0.48351    1.000
    Y4       Y        0.25993    0.51223    0.98351    1.000
    H1       H        0.82530    0.19760    0.45570    1.000
    H2       H        0.10300    0.42450    0.30910    1.000
    H3       H        0.37550    0.99150    0.37760    1.000
    H4       H        0.96140    0.53850    0.74760    1.000
    H5       H        0.36410    0.81860    0.48630    1.000
    H6       H        0.88040    0.03300    0.30670    1.000
    H7       H        0.17470    0.69760    0.95570    1.000
    H8       H        0.03860    0.03850    0.24760    1.000
    H9       H        0.89700    0.92450    0.80910    1.000
    H10      H        0.29570    0.71260    0.46260    1.000
    H11      H        0.61160    0.33670    0.63680    1.000
    H12      H        0.82530    0.30240    0.04430    1.000
    H13      H        0.36410    0.68140    0.01370    1.000
    H14      H        0.61160    0.16330    0.86320    1.000
    H15      H        0.38840    0.66330    0.36320    1.000
    H16      H        0.70430    0.21260    0.96260    1.000
    H17      H        0.87140    0.20930    0.08150    1.000
    H18      H        0.70710    0.79170    0.50110    1.000
    H19      H        0.70430    0.28740    0.53740    1.000
    H20      H        0.85320    0.00330    0.91930    1.000
    H21      H        0.62680    0.00490    0.69260    1.000
    H22      H        0.96140    0.96150    0.75240    1.000
    H23      H        0.63590    0.18140    0.51370    1.000
    H24      H        0.62450    0.00850    0.62240    1.000
    H25      H        0.29290    0.29170    0.00110    1.000
    H26      H        0.38840    0.83670    0.13680    1.000
    H27      H        0.51520    0.23230    0.64590    1.000
    H28      H        0.12920    0.96990    0.62640    1.000
    H29      H        0.47870    0.37070    0.87710    1.000
    H30      H        0.79530    0.90090    0.93380    1.000
    H31      H        0.37320    0.99510    0.30740    1.000
    H32      H        0.17470    0.80240    0.54430    1.000
    H33      H        0.70710    0.70830    0.99890    1.000
    H34      H        0.67840    0.68670    0.52840    1.000
    H35      H        0.29290    0.20830    0.49890    1.000
    H36      H        0.72970    0.10730    0.81900    1.000
    H37      H        0.47870    0.12930    0.62290    1.000
    H38      H        0.32160    0.31330    0.47160    1.000
    H39      H        0.87080    0.46990    0.12640    1.000
    H40      H        0.87080    0.03010    0.37360    1.000
    H41      H        0.72970    0.39270    0.68100    1.000
    H42      H        0.27030    0.89270    0.18100    1.000
    H43      H        0.79530    0.59910    0.56620    1.000
    H44      H        0.32160    0.18670    0.02840    1.000
    H45      H        0.12860    0.79070    0.91850    1.000
    H46      H        0.27030    0.60730    0.31900    1.000
    H47      H        0.62680    0.49510    0.80740    1.000
    H48      H        0.14680    0.50330    0.41930    1.000
    H49      H        0.12920    0.53010    0.87360    1.000
    H50      H        0.52130    0.87070    0.37710    1.000
    H51      H        0.52130    0.62930    0.12290    1.000
    H52      H        0.89700    0.57550    0.69090    1.000
    H53      H        0.62450    0.49150    0.87760    1.000
    H54      H        0.10300    0.07550    0.19090    1.000
    H55      H        0.63590    0.31860    0.98630    1.000
    H56      H        0.37320    0.50490    0.19260    1.000
    H57      H        0.11960    0.53300    0.80670    1.000
    H58      H        0.20470    0.09910    0.06620    1.000
    H59      H        0.11960    0.96700    0.69330    1.000
    H60      H        0.87140    0.29070    0.41850    1.000
    H61      H        0.37550    0.50850    0.12240    1.000
    H62      H        0.48480    0.73230    0.14590    1.000
    H63      H        0.48480    0.76770    0.35410    1.000
    H64      H        0.14680    0.99670    0.08070    1.000
    H65      H        0.51520    0.26770    0.85410    1.000
    H66      H        0.03860    0.46150    0.25240    1.000
    H67      H        0.12860    0.70930    0.58150    1.000
    H68      H        0.67840    0.81330    0.97160    1.000
    H69      H        0.20470    0.40090    0.43380    1.000
    H70      H        0.29570    0.78740    0.03740    1.000
    H71      H        0.88040    0.46700    0.19330    1.000
    H72      H        0.85320    0.49670    0.58070    1.000
    C1       C        0.95340    0.22380    0.06320    1.000
    C2       C        0.23330    0.93120    0.16830    1.000
    C3       C        0.83780    0.49350    0.60850    1.000
    C4       C        0.87280    0.95020    0.86670    1.000
    C5       C        0.52570    0.35150    0.93620    1.000
    C6       C        0.08100    0.38550    0.38310    1.000
    C7       C        0.83780    0.00650    0.89150    1.000
    C8       C        0.80790    0.01480    0.80980    1.000
    C9       C        0.87550    0.51320    0.88440    1.000
    C10      C        0.05300    0.30820    0.01690    1.000
    C11      C        0.45790    0.72250    0.11930    1.000
    C12      C        0.20130    0.27330    0.01510    1.000
    C13      C        0.61940    0.27480    0.59330    1.000
    C14      C        0.27490    0.00060    0.36370    1.000
    C15      C        0.08100    0.11450    0.11690    1.000
    C16      C        0.60790    0.19300    0.54000    1.000
    C17      C        0.51100    0.16260    0.60520    1.000
    C18      C        0.75550    0.11780    0.90270    1.000
    C19      C        0.92970    0.28080    0.04190    1.000
    C20      C        0.21930    0.93390    0.12540    1.000
    C21      C        0.12720    0.04980    0.13330    1.000
    C22      C        0.52570    0.14850    0.56380    1.000
    C23      C        0.05300    0.19180    0.48310    1.000
    C24      C        0.39210    0.80700    0.46000    1.000
    C25      C        0.80790    0.48520    0.69020    1.000
    C26      C        0.86920    0.98720    0.69830    1.000
    C27      C        0.95340    0.27620    0.43680    1.000
    C28      C        0.51100    0.33740    0.89480    1.000
    C29      C        0.94700    0.80820    0.51690    1.000
    C30      C        0.65220    0.24290    0.94530    1.000
    C31      C        0.34780    0.75710    0.05470    1.000
    C32      C        0.09780    0.18890    0.05730    1.000
    C33      C        0.96780    0.62540    0.99900    1.000
    C34      C        0.78040    0.47770    0.73470    1.000
    C35      C        0.94700    0.69180    0.98310    1.000
    C36      C        0.47380    0.08550    0.54880    1.000
    C37      C        0.87550    0.98680    0.61560    1.000
    C38      C        0.76670    0.06880    0.83170    1.000
    C39      C        0.79870    0.77330    0.51510    1.000
    C40      C        0.90220    0.81110    0.94270    1.000
    C41      C        0.97480    0.47630    0.13940    1.000
    C42      C        0.13660    0.04120    0.17400    1.000
    C43      C        0.19210    0.98520    0.19020    1.000
    C44      C        0.13080    0.48720    0.19830    1.000
    C45      C        0.34780    0.74290    0.44530    1.000
    C46      C        0.88420    0.99010    0.57120    1.000
    C47      C        0.65220    0.25710    0.55470    1.000
    C48      C        0.79870    0.72670    0.98490    1.000
    C49      C        0.23330    0.56880    0.33170    1.000
    C50      C        0.86340    0.54120    0.67400    1.000
    C51      C        0.45790    0.77750    0.38070    1.000
    C52      C        0.48900    0.83740    0.39480    1.000
    C53      C        0.76670    0.43120    0.66830    1.000
    C54      C        0.60790    0.30700    0.96000    1.000
    C55      C        0.04660    0.77620    0.93680    1.000
    C56      C        0.02070    0.52440    0.82140    1.000
    C57      C        0.27230    0.49800    0.17840    1.000
    C58      C        0.12450    0.01320    0.38440    1.000
    C59      C        0.24450    0.61780    0.40270    1.000
    C60      C        0.86920    0.51280    0.80170    1.000
    C61      C        0.72770    0.99800    0.67840    1.000
    C62      C        0.16220    0.50650    0.39150    1.000
    C63      C        0.47430    0.85150    0.43620    1.000
    C64      C        0.90220    0.68890    0.55730    1.000
    C65      C        0.22360    0.28840    0.46700    1.000
    C66      C        0.04660    0.72380    0.56320    1.000
    C67      C        0.27490    0.49940    0.13630    1.000
    C68      C        0.38060    0.77480    0.09330    1.000
    C69      C        0.97930    0.02440    0.32140    1.000
    C70      C        0.52620    0.58550    0.04880    1.000
    C71      C        0.21960    0.97770    0.23470    1.000
    C72      C        0.22360    0.21160    0.03300    1.000
    C73      C        0.39210    0.69300    0.04000    1.000
    C74      C        0.91900    0.88550    0.88310    1.000
    C75      C        0.21930    0.56610    0.37460    1.000
    C76      C        0.54210    0.27750    0.88070    1.000
    C77      C        0.19210    0.51480    0.30980    1.000
    C78      C        0.72770    0.50200    0.82160    1.000
    C79      C        0.52620    0.91450    0.45120    1.000
    C80      C        0.07030    0.78080    0.54190    1.000
    C81      C        0.12720    0.45020    0.36670    1.000
    C82      C        0.16220    0.99350    0.10850    1.000
    C83      C        0.12450    0.48680    0.11560    1.000
    C84      C        0.27230    0.00200    0.32160    1.000
    C85      C        0.03220    0.12540    0.49900    1.000
    C86      C        0.13660    0.45880    0.32600    1.000
    C87      C        0.78040    0.02230    0.76530    1.000
    C88      C        0.97480    0.02370    0.36060    1.000
    C89      C        0.20130    0.22670    0.48490    1.000
    C90      C        0.24450    0.88220    0.09730    1.000
    C91      C        0.91900    0.61450    0.61690    1.000
    C92      C        0.03220    0.37460    0.00100    1.000
    C93      C        0.11580    0.00990    0.42880    1.000
    C94      C        0.38060    0.72520    0.40670    1.000
    C95      C        0.07030    0.71920    0.95810    1.000
    C96      C        0.13080    0.01280    0.30170    1.000
    C97      C        0.47380    0.41450    0.95120    1.000
    C98      C        0.77640    0.71160    0.53300    1.000
    C99      C        0.02520    0.97630    0.63940    1.000
    C100     C        0.88420    0.50990    0.92880    1.000
    C101     C        0.86340    0.95880    0.82600    1.000
    C102     C        0.02070    0.97560    0.67860    1.000
    C103     C        0.77640    0.78840    0.96700    1.000
    C104     C        0.11580    0.49010    0.07120    1.000
    C105     C        0.47430    0.64850    0.06380    1.000
    C106     C        0.54210    0.22250    0.61930    1.000
    C107     C        0.78070    0.06610    0.87460    1.000
    C108     C        0.02520    0.52370    0.86060    1.000
    C109     C        0.87280    0.54980    0.63330    1.000
    C110     C        0.92970    0.21920    0.45810    1.000
    C111     C        0.78070    0.43390    0.62540    1.000
    C112     C        0.72510    0.50060    0.86370    1.000
    C113     C        0.09780    0.31110    0.44270    1.000
    C114     C        0.21960    0.52230    0.26530    1.000
    C115     C        0.61940    0.22520    0.90670    1.000
    C116     C        0.48900    0.66260    0.10520    1.000
    C117     C        0.75550    0.38220    0.59730    1.000
    C118     C        0.96780    0.87460    0.50100    1.000
    C119     C        0.97930    0.47560    0.17860    1.000
    C120     C        0.72510    0.99940    0.63630    1.000
    N1       N        0.34390    0.66910    0.38760    1.000
    N2       N        0.13870    0.37130    0.42150    1.000
    N3       N        0.11820    0.48700    0.24100    1.000
    N4       N        0.65610    0.33090    0.61240    1.000
    N5       N        0.86130    0.62870    0.57850    1.000
    N6       N        0.88180    0.98700    0.74100    1.000
    N7       N        0.13870    0.12870    0.07850    1.000
    N8       N        0.65610    0.16910    0.88760    1.000
    N9       N        0.88180    0.51300    0.75900    1.000
    N10      N        0.11820    0.01300    0.25900    1.000
    N11      N        0.34390    0.83090    0.11240    1.000
    N12      N        0.86130    0.87130    0.92150    1.000
    O1       O        0.37570    0.05007    0.56973    1.000
    O2       O        0.02770    0.51242    0.94498    1.000
    O3       O        0.87860    0.10372    0.50228    1.000
    O4       O        0.83960    0.59455    0.00955    1.000
    O5       O        0.99730    0.65080    0.63740    1.000
    O6       O        0.62430    0.94993    0.43027    1.000
    O7       O        0.87860    0.39628    0.99772    1.000
    O8       O        0.33040    0.55790    0.25170    1.000
    O9       O        0.97230    0.48758    0.05502    1.000
    O10      O        0.00270    0.15080    0.13740    1.000
    O11      O        0.83960    0.90545    0.49045    1.000
    O12      O        0.50400    0.43472    0.98688    1.000
    O13      O        0.99730    0.84920    0.86260    1.000
    O14      O        0.00270    0.34920    0.36260    1.000
    O15      O        0.16040    0.09455    0.50955    1.000
    O16      O        0.62430    0.55007    0.06973    1.000
    O17      O        0.02770    0.98758    0.55502    1.000
    O18      O        0.66960    0.05790    0.75170    1.000
    O19      O        0.81100    0.38210    0.56460    1.000
    O20      O        0.50400    0.06528    0.51312    1.000
    O21      O        0.49600    0.56528    0.01312    1.000
    O22      O        0.66960    0.44210    0.74830    1.000
    O23      O        0.49600    0.93472    0.48688    1.000
    O24      O        0.97230    0.01242    0.44498    1.000
    O25      O        0.33040    0.94210    0.24830    1.000
    O26      O        0.12140    0.60372    0.00228    1.000
    O27      O        0.74920    0.49414    0.94866    1.000
    O28      O        0.16040    0.40545    0.99045    1.000
    O29      O        0.12140    0.89628    0.49772    1.000
    O30      O        0.25080    0.99414    0.44866    1.000
    O31      O        0.18900    0.61790    0.43540    1.000
    O32      O        0.25080    0.50586    0.05134    1.000
    O33      O        0.81100    0.11790    0.93540    1.000
    O34      O        0.74920    0.00586    0.55134    1.000
    O35      O        0.18900    0.88210    0.06460    1.000
    O36      O        0.37570    0.44993    0.93027    1.000
