# CIF file generated by openbabel 3.1.0, see https://openbabel.org
data_I
_chemical_name_common 'image0'
_cell_length_a 10.931
_cell_length_b 16.2099
_cell_length_c 43.602
_cell_angle_alpha 90
_cell_angle_beta 92.754
_cell_angle_gamma 90
_space_group_name_H-M_alt 'P 1'
_space_group_name_Hall 'P 1'
loop_
    _symmetry_equiv_pos_as_xyz
    x,y,z
loop_
    _atom_site_label
    _atom_site_type_symbol
    _atom_site_fract_x
    _atom_site_fract_y
    _atom_site_fract_z
    _atom_site_occupancy
    C1       C        0.32360    0.76520    0.25763    1.000
    C2       C        0.31080    0.76680    0.29178    1.000
    C3       C        0.35650    0.70130    0.30867    1.000
    H1       H        0.38970    0.65640    0.29870    1.000
    C4       C        0.35380    0.70110    0.34093    1.000
    H2       H        0.38480    0.65600    0.35200    1.000
    C5       C        0.30620    0.76640    0.35622    1.000
    C6       C        0.19520    0.90160    0.35423    1.000
    H3       H        0.19330    0.90230    0.37550    1.000
    C7       C        0.14230    0.96470    0.33766    1.000
    H4       H        0.10650    0.00850    0.34770    1.000
    C8       C        0.14190    0.96370    0.30515    1.000
    H5       H        0.10480    0.00650    0.29390    1.000
    C9       C        0.19590    0.90020    0.29027    1.000
    H6       H        0.19400    0.89960    0.26890    1.000
    C10      C        0.25490    0.83490    0.30704    1.000
    C11      C        0.25350    0.83440    0.33951    1.000
    C12      C        0.31210    0.76240    0.39066    1.000
    C13      C        0.54800    0.76620    0.19886    1.000
    C14      C        0.68590    0.77050    0.20251    1.000
    C15      C        0.75130    0.70380    0.19323    1.000
    H7       H        0.71010    0.65660    0.18640    1.000
    C16      C        0.87900    0.70560    0.19381    1.000
    H8       H        0.92130    0.65920    0.18760    1.000
    C17      C        0.94380    0.77440    0.20336    1.000
    C18      C        0.93750    0.91990    0.22434    1.000
    H9       H        0.02250    0.92320    0.22460    1.000
    C19      C        0.87220    0.98600    0.23405    1.000
    H10      H        0.91290    0.03390    0.24040    1.000
    C20      C        0.74450    0.98200    0.23457    1.000
    H11      H        0.70090    0.02700    0.24150    1.000
    C21      C        0.68350    0.91250    0.22497    1.000
    H12      H        0.59870    0.91010    0.22590    1.000
    C22      C        0.74860    0.84310    0.21348    1.000
    C23      C        0.87910    0.84620    0.21384    1.000
    C24      C        0.08160    0.76910    0.20208    1.000
    C25      C        0.28920    0.78160    0.14003    1.000
    C26      C        0.27850    0.77730    0.10544    1.000
    C27      C        0.32150    0.70680    0.09256    1.000
    H13      H        0.35000    0.66410    0.10520    1.000
    C28      C        0.32360    0.69740    0.06062    1.000
    H14      H        0.35020    0.64800    0.05240    1.000
    C29      C        0.28680    0.76050    0.04140    1.000
    C30      C        0.18340    0.89690    0.03409    1.000
    H15      H        0.18560    0.89150    0.01290    1.000
    C31      C        0.13200    0.96440    0.04622    1.000
    H16      H        0.10090    0.00560    0.03320    1.000
    C32      C        0.12450    0.97380    0.07802    1.000
    H17      H        0.08910    0.02090    0.08590    1.000
    C33      C        0.16930    0.91330    0.09742    1.000
    H18      H        0.16100    0.91900    0.11840    1.000
    C34      C        0.22820    0.84220    0.08614    1.000
    C35      C        0.23480    0.83350    0.05376    1.000
    C36      C        0.30760    0.75060    0.00769    1.000
    C37      C        0.55100    0.75510    0.94792    1.000
    C38      C        0.68710    0.75100    0.94427    1.000
    C39      C        0.75850    0.81280    0.95702    1.000
    H19      H        0.72170    0.85840    0.96570    1.000
    C40      C        0.88670    0.80780    0.95711    1.000
    H20      H        0.93360    0.84880    0.96680    1.000
    C41      C        0.94410    0.74380    0.94317    1.000
    C42      C        0.92330    0.61490    0.91110    1.000
    H21      H        0.00790    0.61100    0.91020    1.000
    C43      C        0.85100    0.55720    0.89628    1.000
    H22      H        0.88700    0.51490    0.88550    1.000
    C44      C        0.72330    0.56110    0.89709    1.000
    H23      H        0.67500    0.52180    0.88680    1.000
    C45      C        0.66990    0.62260    0.91303    1.000
    H24      H        0.58500    0.62460    0.91360    1.000
    C46      C        0.74210    0.68410    0.92882    1.000
    C47      C        0.87270    0.68030    0.92788    1.000
    C48      C        0.08310    0.74360    0.94591    1.000
    C49      C        0.42230    0.51540    0.19169    1.000
    H25      H        0.49470    0.54490    0.19470    1.000
    C50      C        0.42830    0.43180    0.18659    1.000
    H26      H        0.50400    0.40580    0.18620    1.000
    C51      C        0.32240    0.38630    0.18205    1.000
    C52      C        0.21250    0.42790    0.18311    1.000
    H27      H        0.13890    0.39940    0.18030    1.000
    C53      C        0.21190    0.51230    0.18838    1.000
    H28      H        0.13720    0.53950    0.18910    1.000
    C54      C        0.32600    0.29510    0.17683    1.000
    H29      H        0.39380    0.28150    0.16420    1.000
    H30      H        0.25080    0.27750    0.16600    1.000
    C55      C        0.34100    0.24970    0.20774    1.000
    H31      H        0.41830    0.26610    0.21780    1.000
    H32      H        0.27620    0.26730    0.22070    1.000
    C56      C        0.33830    0.15700    0.20546    1.000
    C57      C        0.31590    0.11590    0.17752    1.000
    H33      H        0.30470    0.14550    0.15930    1.000
    C58      C        0.31070    0.03110    0.17737    1.000
    H34      H        0.29360    0.00460    0.15880    1.000
    C59      C        0.35490    0.02400    0.22897    1.000
    H35      H        0.36970    0.99280    0.24670    1.000
    C60      C        0.36080    0.10870    0.23138    1.000
    H36      H        0.37980    0.13330    0.25030    1.000
    C61      C        0.34490    0.49470    0.98119    1.000
    H37      H        0.33890    0.52670    0.99870    1.000
    C62      C        0.36120    0.41130    0.98458    1.000
    H38      H        0.36820    0.38810    0.00410    1.000
    C63      C        0.36730    0.36200    0.95910    1.000
    C64      C        0.35850    0.40090    0.93061    1.000
    H39      H        0.36230    0.37000    0.91270    1.000
    C65      C        0.34420    0.48490    0.92899    1.000
    H40      H        0.33940    0.50990    0.90980    1.000
    C66      C        0.38700    0.27020    0.96230    1.000
    H41      H        0.43780    0.25110    0.94610    1.000
    H42      H        0.42980    0.25870    0.98180    1.000
    C67      C        0.26940    0.22500    0.96055    1.000
    H43      H        0.22110    0.24410    0.94270    1.000
    H44      H        0.22450    0.23810    0.97860    1.000
    C68      C        0.28340    0.13240    0.95852    1.000
    C69      C        0.18840    0.08530    0.94809    1.000
    H45      H        0.11350    0.11020    0.94300    1.000
    C70      C        0.19980    0.00180    0.94487    1.000
    H46      H        0.13100    0.97150    0.93840    1.000
    C71      C        0.39980    0.00590    0.96142    1.000
    H47      H        0.47300    0.97870    0.96640    1.000
    C72      C        0.39390    0.09060    0.96563    1.000
    H48      H        0.46250    0.11960    0.97310    1.000
    N1       N        0.32920    0.98450    0.20272    1.000
    N2       N        0.31510    0.55570    0.19239    1.000
    N3       N        0.33700    0.53210    0.95391    1.000
    N4       N        0.30380    0.96210    0.95049    1.000
    O1       O        0.49230    0.83070    0.19073    1.000
    O2       O        0.49850    0.69730    0.20357    1.000
    O3       O        0.35590    0.83080    0.24461    1.000
    O4       O        0.30540    0.69710    0.24470    1.000
    O5       O        0.12610    0.69930    0.19716    1.000
    O6       O        0.14400    0.83340    0.20604    1.000
    O7       O        0.28020    0.85120    0.15295    1.000
    O8       O        0.30960    0.71550    0.15401    1.000
    O9       O        0.49910    0.69130    0.95729    1.000
    O10      O        0.49840    0.82350    0.94180    1.000
    O11      O        0.29080    0.67970    0.99639    1.000
    O12      O        0.34470    0.81280    0.99341    1.000
    O13      O        0.13970    0.67750    0.94185    1.000
    O14      O        0.13430    0.81190    0.95265    1.000
    O15      O        0.34330    0.82630    0.40544    1.000
    O16      O        0.28580    0.69280    0.40251    1.000
    Zn1      Zn       0.31886    0.86031    0.19890    1.000
    Zn2      Zn       0.31172    0.67943    0.19850    1.000
    Zn3      Zn       0.32004    0.65574    0.95168    1.000
    Zn4      Zn       0.31540    0.83730    0.94787    1.000
    C73      C        0.32360    0.73480    0.75763    1.000
    C74      C        0.31080    0.73320    0.79178    1.000
    C75      C        0.35650    0.79870    0.80867    1.000
    H49      H        0.38970    0.84360    0.79870    1.000
    C76      C        0.35380    0.79890    0.84093    1.000
    H50      H        0.38480    0.84400    0.85200    1.000
    C77      C        0.30620    0.73360    0.85622    1.000
    C78      C        0.19520    0.59840    0.85423    1.000
    H51      H        0.19330    0.59770    0.87550    1.000
    C79      C        0.14230    0.53530    0.83766    1.000
    H52      H        0.10650    0.49150    0.84770    1.000
    C80      C        0.14190    0.53630    0.80515    1.000
    H53      H        0.10480    0.49350    0.79390    1.000
    C81      C        0.19590    0.59980    0.79027    1.000
    H54      H        0.19400    0.60040    0.76890    1.000
    C82      C        0.25490    0.66510    0.80704    1.000
    C83      C        0.25350    0.66560    0.83951    1.000
    C84      C        0.31210    0.73760    0.89066    1.000
    C85      C        0.54800    0.73380    0.69886    1.000
    C86      C        0.68590    0.72950    0.70251    1.000
    C87      C        0.75130    0.79620    0.69323    1.000
    H55      H        0.71010    0.84340    0.68640    1.000
    C88      C        0.87900    0.79440    0.69381    1.000
    H56      H        0.92130    0.84080    0.68760    1.000
    C89      C        0.94380    0.72560    0.70336    1.000
    C90      C        0.93750    0.58010    0.72434    1.000
    H57      H        0.02250    0.57680    0.72460    1.000
    C91      C        0.87220    0.51400    0.73405    1.000
    H58      H        0.91290    0.46610    0.74040    1.000
    C92      C        0.74450    0.51800    0.73457    1.000
    H59      H        0.70090    0.47300    0.74150    1.000
    C93      C        0.68350    0.58750    0.72497    1.000
    H60      H        0.59870    0.58990    0.72590    1.000
    C94      C        0.74860    0.65690    0.71348    1.000
    C95      C        0.87910    0.65380    0.71384    1.000
    C96      C        0.08160    0.73090    0.70208    1.000
    C97      C        0.28920    0.71840    0.64003    1.000
    C98      C        0.27850    0.72270    0.60544    1.000
    C99      C        0.32150    0.79320    0.59256    1.000
    H61      H        0.35000    0.83590    0.60520    1.000
    C100     C        0.32360    0.80260    0.56062    1.000
    H62      H        0.35020    0.85200    0.55240    1.000
    C101     C        0.28680    0.73950    0.54140    1.000
    C102     C        0.18340    0.60310    0.53409    1.000
    H63      H        0.18560    0.60850    0.51290    1.000
    C103     C        0.13200    0.53560    0.54622    1.000
    H64      H        0.10090    0.49440    0.53320    1.000
    C104     C        0.12450    0.52620    0.57802    1.000
    H65      H        0.08910    0.47910    0.58590    1.000
    C105     C        0.16930    0.58670    0.59742    1.000
    H66      H        0.16100    0.58100    0.61840    1.000
    C106     C        0.22820    0.65780    0.58614    1.000
    C107     C        0.23480    0.66650    0.55376    1.000
    C108     C        0.30760    0.74940    0.50769    1.000
    C109     C        0.55100    0.74490    0.44792    1.000
    C110     C        0.68710    0.74900    0.44427    1.000
    C111     C        0.75850    0.68720    0.45702    1.000
    H67      H        0.72170    0.64160    0.46570    1.000
    C112     C        0.88670    0.69220    0.45711    1.000
    H68      H        0.93360    0.65120    0.46680    1.000
    C113     C        0.94410    0.75620    0.44317    1.000
    C114     C        0.92330    0.88510    0.41110    1.000
    H69      H        0.00790    0.88900    0.41020    1.000
    C115     C        0.85100    0.94280    0.39628    1.000
    H70      H        0.88700    0.98510    0.38550    1.000
    C116     C        0.72330    0.93890    0.39709    1.000
    H71      H        0.67500    0.97820    0.38680    1.000
    C117     C        0.66990    0.87740    0.41303    1.000
    H72      H        0.58500    0.87540    0.41360    1.000
    C118     C        0.74210    0.81590    0.42882    1.000
    C119     C        0.87270    0.81970    0.42788    1.000
    C120     C        0.08310    0.75640    0.44591    1.000
    C121     C        0.42230    0.98460    0.69169    1.000
    H73      H        0.49470    0.95510    0.69470    1.000
    C122     C        0.42830    0.06820    0.68659    1.000
    H74      H        0.50400    0.09420    0.68620    1.000
    C123     C        0.32240    0.11370    0.68205    1.000
    C124     C        0.21250    0.07210    0.68311    1.000
    H75      H        0.13890    0.10060    0.68030    1.000
    C125     C        0.21190    0.98770    0.68838    1.000
    H76      H        0.13720    0.96050    0.68910    1.000
    C126     C        0.32600    0.20490    0.67683    1.000
    H77      H        0.39380    0.21850    0.66420    1.000
    H78      H        0.25080    0.22250    0.66600    1.000
    C127     C        0.34100    0.25030    0.70774    1.000
    H79      H        0.41830    0.23390    0.71780    1.000
    H80      H        0.27620    0.23270    0.72070    1.000
    C128     C        0.33830    0.34300    0.70546    1.000
    C129     C        0.31590    0.38410    0.67752    1.000
    H81      H        0.30470    0.35450    0.65930    1.000
    C130     C        0.31070    0.46890    0.67737    1.000
    H82      H        0.29360    0.49540    0.65880    1.000
    C131     C        0.35490    0.47600    0.72897    1.000
    H83      H        0.36970    0.50720    0.74670    1.000
    C132     C        0.36080    0.39130    0.73138    1.000
    H84      H        0.37980    0.36670    0.75030    1.000
    C133     C        0.34490    0.00530    0.48119    1.000
    H85      H        0.33890    0.97330    0.49870    1.000
    C134     C        0.36120    0.08870    0.48458    1.000
    H86      H        0.36820    0.11190    0.50410    1.000
    C135     C        0.36730    0.13800    0.45910    1.000
    C136     C        0.35850    0.09910    0.43061    1.000
    H87      H        0.36230    0.13000    0.41270    1.000
    C137     C        0.34420    0.01510    0.42899    1.000
    H88      H        0.33940    0.99010    0.40980    1.000
    C138     C        0.38700    0.22980    0.46230    1.000
    H89      H        0.43780    0.24890    0.44610    1.000
    H90      H        0.42980    0.24130    0.48180    1.000
    C139     C        0.26940    0.27500    0.46055    1.000
    H91      H        0.22110    0.25590    0.44270    1.000
    H92      H        0.22450    0.26190    0.47860    1.000
    C140     C        0.28340    0.36760    0.45852    1.000
    C141     C        0.18840    0.41470    0.44809    1.000
    H93      H        0.11350    0.38980    0.44300    1.000
    C142     C        0.19980    0.49820    0.44487    1.000
    H94      H        0.13100    0.52850    0.43840    1.000
    C143     C        0.39980    0.49410    0.46142    1.000
    H95      H        0.47300    0.52130    0.46640    1.000
    C144     C        0.39390    0.40940    0.46563    1.000
    H96      H        0.46250    0.38040    0.47310    1.000
    N5       N        0.32920    0.51550    0.70272    1.000
    N6       N        0.31510    0.94430    0.69239    1.000
    N7       N        0.33700    0.96790    0.45391    1.000
    N8       N        0.30380    0.53790    0.45049    1.000
    O17      O        0.49230    0.66930    0.69073    1.000
    O18      O        0.49850    0.80270    0.70357    1.000
    O19      O        0.35590    0.66920    0.74461    1.000
    O20      O        0.30540    0.80290    0.74470    1.000
    O21      O        0.12610    0.80070    0.69716    1.000
    O22      O        0.14400    0.66660    0.70604    1.000
    O23      O        0.28020    0.64880    0.65295    1.000
    O24      O        0.30960    0.78450    0.65401    1.000
    O25      O        0.49910    0.80870    0.45729    1.000
    O26      O        0.49840    0.67650    0.44180    1.000
    O27      O        0.29080    0.82030    0.49639    1.000
    O28      O        0.34470    0.68720    0.49341    1.000
    O29      O        0.13970    0.82250    0.44185    1.000
    O30      O        0.13430    0.68810    0.45265    1.000
    O31      O        0.34330    0.67370    0.90544    1.000
    O32      O        0.28580    0.80720    0.90251    1.000
    Zn5      Zn       0.31886    0.63969    0.69890    1.000
    Zn6      Zn       0.31172    0.82057    0.69850    1.000
    Zn7      Zn       0.32004    0.84426    0.45168    1.000
    Zn8      Zn       0.31540    0.66270    0.44787    1.000
    C145     C        0.67640    0.26520    0.24237    1.000
    C146     C        0.68920    0.26680    0.20822    1.000
    C147     C        0.64350    0.20130    0.19133    1.000
    H97      H        0.61030    0.15640    0.20130    1.000
    C148     C        0.64620    0.20110    0.15907    1.000
    H98      H        0.61520    0.15600    0.14800    1.000
    C149     C        0.69380    0.26640    0.14378    1.000
    C150     C        0.80480    0.40160    0.14577    1.000
    H99      H        0.80670    0.40230    0.12450    1.000
    C151     C        0.85770    0.46470    0.16234    1.000
    H100     H        0.89350    0.50850    0.15230    1.000
    C152     C        0.85810    0.46370    0.19485    1.000
    H101     H        0.89520    0.50650    0.20610    1.000
    C153     C        0.80410    0.40020    0.20973    1.000
    H102     H        0.80600    0.39960    0.23110    1.000
    C154     C        0.74510    0.33490    0.19296    1.000
    C155     C        0.74650    0.33440    0.16049    1.000
    C156     C        0.68790    0.26240    0.10934    1.000
    C157     C        0.45200    0.26620    0.30114    1.000
    C158     C        0.31410    0.27050    0.29749    1.000
    C159     C        0.24870    0.20380    0.30677    1.000
    H103     H        0.28990    0.15660    0.31360    1.000
    C160     C        0.12100    0.20560    0.30619    1.000
    H104     H        0.07870    0.15920    0.31240    1.000
    C161     C        0.05620    0.27440    0.29664    1.000
    C162     C        0.06250    0.41990    0.27566    1.000
    H105     H        0.97750    0.42320    0.27540    1.000
    C163     C        0.12780    0.48600    0.26595    1.000
    H106     H        0.08710    0.53390    0.25960    1.000
    C164     C        0.25550    0.48200    0.26543    1.000
    H107     H        0.29910    0.52700    0.25850    1.000
    C165     C        0.31650    0.41250    0.27503    1.000
    H108     H        0.40130    0.41010    0.27410    1.000
    C166     C        0.25140    0.34310    0.28652    1.000
    C167     C        0.12090    0.34620    0.28616    1.000
    C168     C        0.91840    0.26910    0.29792    1.000
    C169     C        0.71080    0.28160    0.35997    1.000
    C170     C        0.72150    0.27730    0.39456    1.000
    C171     C        0.67850    0.20680    0.40744    1.000
    H109     H        0.65000    0.16410    0.39480    1.000
    C172     C        0.67640    0.19740    0.43938    1.000
    H110     H        0.64980    0.14800    0.44760    1.000
    C173     C        0.71320    0.26050    0.45860    1.000
    C174     C        0.81660    0.39690    0.46591    1.000
    H111     H        0.81440    0.39150    0.48710    1.000
    C175     C        0.86800    0.46440    0.45378    1.000
    H112     H        0.89910    0.50560    0.46680    1.000
    C176     C        0.87550    0.47380    0.42198    1.000
    H113     H        0.91090    0.52090    0.41410    1.000
    C177     C        0.83070    0.41330    0.40258    1.000
    H114     H        0.83900    0.41900    0.38160    1.000
    C178     C        0.77180    0.34220    0.41386    1.000
    C179     C        0.76520    0.33350    0.44624    1.000
    C180     C        0.69240    0.25060    0.49231    1.000
    C181     C        0.44900    0.25510    0.55208    1.000
    C182     C        0.31290    0.25100    0.55573    1.000
    C183     C        0.24150    0.31280    0.54298    1.000
    H115     H        0.27830    0.35840    0.53430    1.000
    C184     C        0.11330    0.30780    0.54289    1.000
    H116     H        0.06640    0.34880    0.53320    1.000
    C185     C        0.05590    0.24380    0.55683    1.000
    C186     C        0.07670    0.11490    0.58890    1.000
    H117     H        0.99210    0.11100    0.58980    1.000
    C187     C        0.14900    0.05720    0.60372    1.000
    H118     H        0.11300    0.01490    0.61450    1.000
    C188     C        0.27670    0.06110    0.60291    1.000
    H119     H        0.32500    0.02180    0.61320    1.000
    C189     C        0.33010    0.12260    0.58697    1.000
    H120     H        0.41500    0.12460    0.58640    1.000
    C190     C        0.25790    0.18410    0.57118    1.000
    C191     C        0.12730    0.18030    0.57212    1.000
    C192     C        0.91690    0.24360    0.55409    1.000
    C193     C        0.57770    0.01540    0.30831    1.000
    H121     H        0.50530    0.04490    0.30530    1.000
    C194     C        0.57170    0.93180    0.31341    1.000
    H122     H        0.49600    0.90580    0.31380    1.000
    C195     C        0.67760    0.88630    0.31795    1.000
    C196     C        0.78750    0.92790    0.31689    1.000
    H123     H        0.86110    0.89940    0.31970    1.000
    C197     C        0.78810    0.01230    0.31162    1.000
    H124     H        0.86280    0.03950    0.31090    1.000
    C198     C        0.67400    0.79510    0.32317    1.000
    H125     H        0.60620    0.78150    0.33580    1.000
    H126     H        0.74920    0.77750    0.33400    1.000
    C199     C        0.65900    0.74970    0.29226    1.000
    H127     H        0.58170    0.76610    0.28220    1.000
    H128     H        0.72380    0.76730    0.27930    1.000
    C200     C        0.66170    0.65700    0.29454    1.000
    C201     C        0.68410    0.61590    0.32248    1.000
    H129     H        0.69530    0.64550    0.34070    1.000
    C202     C        0.68930    0.53110    0.32263    1.000
    H130     H        0.70640    0.50460    0.34120    1.000
    C203     C        0.64510    0.52400    0.27103    1.000
    H131     H        0.63030    0.49280    0.25330    1.000
    C204     C        0.63920    0.60870    0.26862    1.000
    H132     H        0.62020    0.63330    0.24970    1.000
    C205     C        0.65510    0.99470    0.51881    1.000
    H133     H        0.66110    0.02670    0.50130    1.000
    C206     C        0.63880    0.91130    0.51542    1.000
    H134     H        0.63180    0.88810    0.49590    1.000
    C207     C        0.63270    0.86200    0.54090    1.000
    C208     C        0.64150    0.90090    0.56939    1.000
    H135     H        0.63770    0.87000    0.58730    1.000
    C209     C        0.65580    0.98490    0.57101    1.000
    H136     H        0.66060    0.00990    0.59020    1.000
    C210     C        0.61300    0.77020    0.53770    1.000
    H137     H        0.56220    0.75110    0.55390    1.000
    H138     H        0.57020    0.75870    0.51820    1.000
    C211     C        0.73060    0.72500    0.53945    1.000
    H139     H        0.77890    0.74410    0.55730    1.000
    H140     H        0.77550    0.73810    0.52140    1.000
    C212     C        0.71660    0.63240    0.54148    1.000
    C213     C        0.81160    0.58530    0.55191    1.000
    H141     H        0.88650    0.61020    0.55700    1.000
    C214     C        0.80020    0.50180    0.55513    1.000
    H142     H        0.86900    0.47150    0.56160    1.000
    C215     C        0.60020    0.50590    0.53858    1.000
    H143     H        0.52700    0.47870    0.53360    1.000
    C216     C        0.60610    0.59060    0.53437    1.000
    H144     H        0.53750    0.61960    0.52690    1.000
    N9       N        0.67080    0.48450    0.29728    1.000
    N10      N        0.68490    0.05570    0.30761    1.000
    N11      N        0.66300    0.03210    0.54609    1.000
    N12      N        0.69620    0.46210    0.54951    1.000
    O33      O        0.50770    0.33070    0.30927    1.000
    O34      O        0.50150    0.19730    0.29643    1.000
    O35      O        0.64410    0.33080    0.25539    1.000
    O36      O        0.69460    0.19710    0.25530    1.000
    O37      O        0.87390    0.19930    0.30284    1.000
    O38      O        0.85600    0.33340    0.29396    1.000
    O39      O        0.71980    0.35120    0.34705    1.000
    O40      O        0.69040    0.21550    0.34599    1.000
    O41      O        0.50090    0.19130    0.54271    1.000
    O42      O        0.50160    0.32350    0.55820    1.000
    O43      O        0.70920    0.17970    0.50361    1.000
    O44      O        0.65530    0.31280    0.50659    1.000
    O45      O        0.86030    0.17750    0.55815    1.000
    O46      O        0.86570    0.31190    0.54735    1.000
    O47      O        0.65670    0.32630    0.09456    1.000
    O48      O        0.71420    0.19280    0.09749    1.000
    Zn9      Zn       0.68114    0.36031    0.30110    1.000
    Zn10     Zn       0.68828    0.17943    0.30150    1.000
    Zn11     Zn       0.67996    0.15574    0.54832    1.000
    Zn12     Zn       0.68460    0.33730    0.55213    1.000
    C217     C        0.67640    0.23480    0.74237    1.000
    C218     C        0.68920    0.23320    0.70822    1.000
    C219     C        0.64350    0.29870    0.69133    1.000
    H145     H        0.61030    0.34360    0.70130    1.000
    C220     C        0.64620    0.29890    0.65907    1.000
    H146     H        0.61520    0.34400    0.64800    1.000
    C221     C        0.69380    0.23360    0.64378    1.000
    C222     C        0.80480    0.09840    0.64577    1.000
    H147     H        0.80670    0.09770    0.62450    1.000
    C223     C        0.85770    0.03530    0.66234    1.000
    H148     H        0.89350    0.99150    0.65230    1.000
    C224     C        0.85810    0.03630    0.69485    1.000
    H149     H        0.89520    0.99350    0.70610    1.000
    C225     C        0.80410    0.09980    0.70973    1.000
    H150     H        0.80600    0.10040    0.73110    1.000
    C226     C        0.74510    0.16510    0.69296    1.000
    C227     C        0.74650    0.16560    0.66049    1.000
    C228     C        0.68790    0.23760    0.60934    1.000
    C229     C        0.45200    0.23380    0.80114    1.000
    C230     C        0.31410    0.22950    0.79749    1.000
    C231     C        0.24870    0.29620    0.80677    1.000
    H151     H        0.28990    0.34340    0.81360    1.000
    C232     C        0.12100    0.29440    0.80619    1.000
    H152     H        0.07870    0.34080    0.81240    1.000
    C233     C        0.05620    0.22560    0.79664    1.000
    C234     C        0.06250    0.08010    0.77566    1.000
    H153     H        0.97750    0.07680    0.77540    1.000
    C235     C        0.12780    0.01400    0.76595    1.000
    H154     H        0.08710    0.96610    0.75960    1.000
    C236     C        0.25550    0.01800    0.76543    1.000
    H155     H        0.29910    0.97300    0.75850    1.000
    C237     C        0.31650    0.08750    0.77503    1.000
    H156     H        0.40130    0.08990    0.77410    1.000
    C238     C        0.25140    0.15690    0.78652    1.000
    C239     C        0.12090    0.15380    0.78616    1.000
    C240     C        0.91840    0.23090    0.79792    1.000
    C241     C        0.71080    0.21840    0.85997    1.000
    C242     C        0.72150    0.22270    0.89456    1.000
    C243     C        0.67850    0.29320    0.90744    1.000
    H157     H        0.65000    0.33590    0.89480    1.000
    C244     C        0.67640    0.30260    0.93938    1.000
    H158     H        0.64980    0.35200    0.94760    1.000
    C245     C        0.71320    0.23950    0.95860    1.000
    C246     C        0.81660    0.10310    0.96591    1.000
    H159     H        0.81440    0.10850    0.98710    1.000
    C247     C        0.86800    0.03560    0.95378    1.000
    H160     H        0.89910    0.99440    0.96680    1.000
    C248     C        0.87550    0.02620    0.92198    1.000
    H161     H        0.91090    0.97910    0.91410    1.000
    C249     C        0.83070    0.08670    0.90258    1.000
    H162     H        0.83900    0.08100    0.88160    1.000
    C250     C        0.77180    0.15780    0.91386    1.000
    C251     C        0.76520    0.16650    0.94624    1.000
    C252     C        0.69240    0.24940    0.99231    1.000
    C253     C        0.44900    0.24490    0.05208    1.000
    C254     C        0.31290    0.24900    0.05573    1.000
    C255     C        0.24150    0.18720    0.04298    1.000
    H163     H        0.27830    0.14160    0.03430    1.000
    C256     C        0.11330    0.19220    0.04289    1.000
    H164     H        0.06640    0.15120    0.03320    1.000
    C257     C        0.05590    0.25620    0.05683    1.000
    C258     C        0.07670    0.38510    0.08890    1.000
    H165     H        0.99210    0.38900    0.08980    1.000
    C259     C        0.14900    0.44280    0.10372    1.000
    H166     H        0.11300    0.48510    0.11450    1.000
    C260     C        0.27670    0.43890    0.10291    1.000
    H167     H        0.32500    0.47820    0.11320    1.000
    C261     C        0.33010    0.37740    0.08697    1.000
    H168     H        0.41500    0.37540    0.08640    1.000
    C262     C        0.25790    0.31590    0.07118    1.000
    C263     C        0.12730    0.31970    0.07212    1.000
    C264     C        0.91690    0.25640    0.05409    1.000
    C265     C        0.57770    0.48460    0.80831    1.000
    H169     H        0.50530    0.45510    0.80530    1.000
    C266     C        0.57170    0.56820    0.81341    1.000
    H170     H        0.49600    0.59420    0.81380    1.000
    C267     C        0.67760    0.61370    0.81795    1.000
    C268     C        0.78750    0.57210    0.81689    1.000
    H171     H        0.86110    0.60060    0.81970    1.000
    C269     C        0.78810    0.48770    0.81162    1.000
    H172     H        0.86280    0.46050    0.81090    1.000
    C270     C        0.67400    0.70490    0.82317    1.000
    H173     H        0.60620    0.71850    0.83580    1.000
    H174     H        0.74920    0.72250    0.83400    1.000
    C271     C        0.65900    0.75030    0.79226    1.000
    H175     H        0.58170    0.73390    0.78220    1.000
    H176     H        0.72380    0.73270    0.77930    1.000
    C272     C        0.66170    0.84300    0.79454    1.000
    C273     C        0.68410    0.88410    0.82248    1.000
    H177     H        0.69530    0.85450    0.84070    1.000
    C274     C        0.68930    0.96890    0.82263    1.000
    H178     H        0.70640    0.99540    0.84120    1.000
    C275     C        0.64510    0.97600    0.77103    1.000
    H179     H        0.63030    0.00720    0.75330    1.000
    C276     C        0.63920    0.89130    0.76862    1.000
    H180     H        0.62020    0.86670    0.74970    1.000
    C277     C        0.65510    0.50530    0.01881    1.000
    H181     H        0.66110    0.47330    0.00130    1.000
    C278     C        0.63880    0.58870    0.01542    1.000
    H182     H        0.63180    0.61190    0.99590    1.000
    C279     C        0.63270    0.63800    0.04090    1.000
    C280     C        0.64150    0.59910    0.06939    1.000
    H183     H        0.63770    0.63000    0.08730    1.000
    C281     C        0.65580    0.51510    0.07101    1.000
    H184     H        0.66060    0.49010    0.09020    1.000
    C282     C        0.61300    0.72980    0.03770    1.000
    H185     H        0.56220    0.74890    0.05390    1.000
    H186     H        0.57020    0.74130    0.01820    1.000
    C283     C        0.73060    0.77500    0.03945    1.000
    H187     H        0.77890    0.75590    0.05730    1.000
    H188     H        0.77550    0.76190    0.02140    1.000
    C284     C        0.71660    0.86760    0.04148    1.000
    C285     C        0.81160    0.91470    0.05191    1.000
    H189     H        0.88650    0.88980    0.05700    1.000
    C286     C        0.80020    0.99820    0.05513    1.000
    H190     H        0.86900    0.02850    0.06160    1.000
    C287     C        0.60020    0.99410    0.03858    1.000
    H191     H        0.52700    0.02130    0.03360    1.000
    C288     C        0.60610    0.90940    0.03437    1.000
    H192     H        0.53750    0.88040    0.02690    1.000
    N13      N        0.67080    0.01550    0.79728    1.000
    N14      N        0.68490    0.44430    0.80761    1.000
    N15      N        0.66300    0.46790    0.04609    1.000
    N16      N        0.69620    0.03790    0.04951    1.000
    O49      O        0.50770    0.16930    0.80927    1.000
    O50      O        0.50150    0.30270    0.79643    1.000
    O51      O        0.64410    0.16920    0.75539    1.000
    O52      O        0.69460    0.30290    0.75530    1.000
    O53      O        0.87390    0.30070    0.80284    1.000
    O54      O        0.85600    0.16660    0.79396    1.000
    O55      O        0.71980    0.14880    0.84705    1.000
    O56      O        0.69040    0.28450    0.84599    1.000
    O57      O        0.50090    0.30870    0.04271    1.000
    O58      O        0.50160    0.17650    0.05820    1.000
    O59      O        0.70920    0.32030    0.00361    1.000
    O60      O        0.65530    0.18720    0.00659    1.000
    O61      O        0.86030    0.32250    0.05815    1.000
    O62      O        0.86570    0.18810    0.04735    1.000
    O63      O        0.65670    0.17370    0.59456    1.000
    O64      O        0.71420    0.30720    0.59749    1.000
    Zn13     Zn       0.68114    0.13969    0.80110    1.000
    Zn14     Zn       0.68828    0.32057    0.80150    1.000
    Zn15     Zn       0.67996    0.34426    0.04832    1.000
    Zn16     Zn       0.68460    0.16270    0.05213    1.000
