# CIF file generated by openbabel 3.1.0, see https://openbabel.org
data_I
_chemical_name_common 'image0'
_cell_length_a 8.0234
_cell_length_b 30.2439
_cell_length_c 15.328
_cell_angle_alpha 90
_cell_angle_beta 90
_cell_angle_gamma 90
_space_group_name_H-M_alt 'P 1'
_space_group_name_Hall 'P 1'
loop_
    _symmetry_equiv_pos_as_xyz
    x,y,z
loop_
    _atom_site_label
    _atom_site_type_symbol
    _atom_site_fract_x
    _atom_site_fract_y
    _atom_site_fract_z
    _atom_site_occupancy
    Sm1      Sm       0.43608    0.90701    0.70430    1.000
    O1       O        0.65730    0.86874    0.81759    1.000
    O2       O        0.39130    0.04198    0.38552    1.000
    O3       O        0.25430    0.95998    0.65063    1.000
    O4       O        0.48820    0.83050    0.73235    1.000
    O5       O        0.23640    0.09708    0.33781    1.000
    O6       O        0.00130    0.96958    0.70828    1.000
    N1       N        0.92540    0.08242    0.56010    1.000
    C1       C        0.59630    0.83219    0.79160    1.000
    C2       C        0.16020    0.06078    0.47210    1.000
    C3       C        0.02420    0.08790    0.49040    1.000
    H1       H        0.00020    0.11150    0.45140    1.000
    C4       C        0.11910    0.97985    0.65840    1.000
    C5       C        0.26610    0.06641    0.39270    1.000
    C6       C        0.95850    0.04793    0.61230    1.000
    H2       H        0.88610    0.04270    0.66020    1.000
    C7       C        0.64820    0.78958    0.83280    1.000
    C8       C        0.09250    0.01942    0.60030    1.000
    C9       C        0.74240    0.78794    0.90890    1.000
    H3       H        0.77650    0.81500    0.93470    1.000
    C10      C        0.19590    0.02656    0.52980    1.000
    H4       H        0.29060    0.00830    0.52070    1.000
    Sm2      Sm       0.06392    0.09299    0.20430    1.000
    O7       O        0.84270    0.13126    0.31759    1.000
    O8       O        0.10870    0.95802    0.88552    1.000
    O9       O        0.24570    0.04002    0.15063    1.000
    O10      O        0.01180    0.16950    0.23235    1.000
    O11      O        0.26360    0.90292    0.83781    1.000
    O12      O        0.49870    0.03042    0.20828    1.000
    N2       N        0.57460    0.91758    0.06010    1.000
    C11      C        0.90370    0.16781    0.29160    1.000
    C12      C        0.33980    0.93922    0.97210    1.000
    C13      C        0.47580    0.91210    0.99040    1.000
    H5       H        0.49980    0.88850    0.95140    1.000
    C14      C        0.38090    0.02015    0.15840    1.000
    C15      C        0.23390    0.93359    0.89270    1.000
    C16      C        0.54150    0.95207    0.11230    1.000
    H6       H        0.61390    0.95730    0.16020    1.000
    C17      C        0.85180    0.21042    0.33280    1.000
    C18      C        0.40750    0.98058    0.10030    1.000
    C19      C        0.75760    0.21206    0.40890    1.000
    H7       H        0.72350    0.18500    0.43470    1.000
    C20      C        0.30410    0.97344    0.02980    1.000
    H8       H        0.20940    0.99170    0.02070    1.000
    Sm3      Sm       0.56392    0.40701    0.29570    1.000
    O13      O        0.34270    0.36874    0.18241    1.000
    O14      O        0.60870    0.54198    0.61448    1.000
    O15      O        0.74570    0.45998    0.34937    1.000
    O16      O        0.51180    0.33050    0.26765    1.000
    O17      O        0.76360    0.59708    0.66219    1.000
    O18      O        0.99870    0.46958    0.29172    1.000
    N3       N        0.07460    0.58242    0.43990    1.000
    C21      C        0.40370    0.33219    0.20840    1.000
    C22      C        0.83980    0.56078    0.52790    1.000
    C23      C        0.97580    0.58790    0.50960    1.000
    H9       H        0.99980    0.61150    0.54860    1.000
    C24      C        0.88090    0.47985    0.34160    1.000
    C25      C        0.73390    0.56641    0.60730    1.000
    C26      C        0.04150    0.54793    0.38770    1.000
    H10      H        0.11390    0.54270    0.33980    1.000
    C27      C        0.35180    0.28958    0.16720    1.000
    C28      C        0.90750    0.51942    0.39970    1.000
    C29      C        0.25760    0.28794    0.09110    1.000
    H11      H        0.22350    0.31500    0.06530    1.000
    C30      C        0.80410    0.52656    0.47020    1.000
    H12      H        0.70940    0.50830    0.47930    1.000
    Sm4      Sm       0.93608    0.59299    0.79570    1.000
    O19      O        0.15730    0.63126    0.68241    1.000
    O20      O        0.89130    0.45802    0.11448    1.000
    O21      O        0.75430    0.54002    0.84937    1.000
    O22      O        0.98820    0.66950    0.76765    1.000
    O23      O        0.73640    0.40292    0.16219    1.000
    O24      O        0.50130    0.53042    0.79172    1.000
    N4       N        0.42540    0.41758    0.93990    1.000
    C31      C        0.09630    0.66781    0.70840    1.000
    C32      C        0.66020    0.43922    0.02790    1.000
    C33      C        0.52420    0.41210    0.00960    1.000
    H13      H        0.50020    0.38850    0.04860    1.000
    C34      C        0.61910    0.52015    0.84160    1.000
    C35      C        0.76610    0.43359    0.10730    1.000
    C36      C        0.45850    0.45207    0.88770    1.000
    H14      H        0.38610    0.45730    0.83980    1.000
    C37      C        0.14820    0.71042    0.66720    1.000
    C38      C        0.59250    0.48058    0.89970    1.000
    C39      C        0.24240    0.71206    0.59110    1.000
    H15      H        0.27650    0.68500    0.56530    1.000
    C40      C        0.69590    0.47344    0.97020    1.000
    H16      H        0.79060    0.49170    0.97930    1.000
    Sm5      Sm       0.56392    0.09299    0.29570    1.000
    O25      O        0.34270    0.13126    0.18241    1.000
    O26      O        0.60870    0.95802    0.61448    1.000
    O27      O        0.74570    0.04002    0.34937    1.000
    O28      O        0.51180    0.16950    0.26765    1.000
    O29      O        0.76360    0.90292    0.66219    1.000
    O30      O        0.99870    0.03042    0.29172    1.000
    N5       N        0.07460    0.91758    0.43990    1.000
    C41      C        0.40370    0.16781    0.20840    1.000
    C42      C        0.83980    0.93922    0.52790    1.000
    C43      C        0.97580    0.91210    0.50960    1.000
    H17      H        0.99980    0.88850    0.54860    1.000
    C44      C        0.88090    0.02015    0.34160    1.000
    C45      C        0.73390    0.93359    0.60730    1.000
    C46      C        0.04150    0.95207    0.38770    1.000
    H18      H        0.11390    0.95730    0.33980    1.000
    C47      C        0.35180    0.21042    0.16720    1.000
    C48      C        0.90750    0.98058    0.39970    1.000
    C49      C        0.25760    0.21206    0.09110    1.000
    H19      H        0.22350    0.18500    0.06530    1.000
    C50      C        0.80410    0.97344    0.47020    1.000
    H20      H        0.70940    0.99170    0.47930    1.000
    Sm6      Sm       0.93608    0.90701    0.79570    1.000
    O31      O        0.15730    0.86874    0.68241    1.000
    O32      O        0.89130    0.04198    0.11448    1.000
    O33      O        0.75430    0.95998    0.84937    1.000
    O34      O        0.98820    0.83050    0.76765    1.000
    O35      O        0.73640    0.09708    0.16219    1.000
    O36      O        0.50130    0.96958    0.79172    1.000
    N6       N        0.42540    0.08242    0.93990    1.000
    C51      C        0.09630    0.83219    0.70840    1.000
    C52      C        0.66020    0.06078    0.02790    1.000
    C53      C        0.52420    0.08790    0.00960    1.000
    H21      H        0.50020    0.11150    0.04860    1.000
    C54      C        0.61910    0.97985    0.84160    1.000
    C55      C        0.76610    0.06641    0.10730    1.000
    C56      C        0.45850    0.04793    0.88770    1.000
    H22      H        0.38610    0.04270    0.83980    1.000
    C57      C        0.14820    0.78958    0.66720    1.000
    C58      C        0.59250    0.01942    0.89970    1.000
    C59      C        0.24240    0.78794    0.59110    1.000
    H23      H        0.27650    0.81500    0.56530    1.000
    C60      C        0.69590    0.02656    0.97020    1.000
    H24      H        0.79060    0.00830    0.97930    1.000
    Sm7      Sm       0.43608    0.59299    0.70430    1.000
    O37      O        0.65730    0.63126    0.81759    1.000
    O38      O        0.39130    0.45802    0.38552    1.000
    O39      O        0.25430    0.54002    0.65063    1.000
    O40      O        0.48820    0.66950    0.73235    1.000
    O41      O        0.23640    0.40292    0.33781    1.000
    O42      O        0.00130    0.53042    0.70828    1.000
    N7       N        0.92540    0.41758    0.56010    1.000
    C61      C        0.59630    0.66781    0.79160    1.000
    C62      C        0.16020    0.43922    0.47210    1.000
    C63      C        0.02420    0.41210    0.49040    1.000
    H25      H        0.00020    0.38850    0.45140    1.000
    C64      C        0.11910    0.52015    0.65840    1.000
    C65      C        0.26610    0.43359    0.39270    1.000
    C66      C        0.95850    0.45207    0.61230    1.000
    H26      H        0.88610    0.45730    0.66020    1.000
    C67      C        0.64820    0.71042    0.83280    1.000
    C68      C        0.09250    0.48058    0.60030    1.000
    C69      C        0.74240    0.71206    0.90890    1.000
    H27      H        0.77650    0.68500    0.93470    1.000
    C70      C        0.19590    0.47344    0.52980    1.000
    H28      H        0.29060    0.49170    0.52070    1.000
    Sm8      Sm       0.06392    0.40701    0.20430    1.000
    O43      O        0.84270    0.36874    0.31759    1.000
    O44      O        0.10870    0.54198    0.88552    1.000
    O45      O        0.24570    0.45998    0.15063    1.000
    O46      O        0.01180    0.33050    0.23235    1.000
    O47      O        0.26360    0.59708    0.83781    1.000
    O48      O        0.49870    0.46958    0.20828    1.000
    N8       N        0.57460    0.58242    0.06010    1.000
    C71      C        0.90370    0.33219    0.29160    1.000
    C72      C        0.33980    0.56078    0.97210    1.000
    C73      C        0.47580    0.58790    0.99040    1.000
    H29      H        0.49980    0.61150    0.95140    1.000
    C74      C        0.38090    0.47985    0.15840    1.000
    C75      C        0.23390    0.56641    0.89270    1.000
    C76      C        0.54150    0.54793    0.11230    1.000
    H30      H        0.61390    0.54270    0.16020    1.000
    C77      C        0.85180    0.28958    0.33280    1.000
    C78      C        0.40750    0.51942    0.10030    1.000
    C79      C        0.75760    0.28794    0.40890    1.000
    H31      H        0.72350    0.31500    0.43470    1.000
    C80      C        0.30410    0.52656    0.02980    1.000
    H32      H        0.20940    0.50830    0.02070    1.000
    N9       N        0.78750    0.75000    0.94780    1.000
    C81      C        0.59860    0.75000    0.79450    1.000
    H33      H        0.53220    0.75000    0.74320    1.000
    N10      N        0.71250    0.25000    0.44780    1.000
    C82      C        0.90140    0.25000    0.29450    1.000
    H34      H        0.96780    0.25000    0.24320    1.000
    N11      N        0.21250    0.25000    0.05220    1.000
    C83      C        0.40140    0.25000    0.20550    1.000
    H35      H        0.46780    0.25000    0.25680    1.000
    N12      N        0.28750    0.75000    0.55220    1.000
    C84      C        0.09860    0.75000    0.70550    1.000
    H36      H        0.03220    0.75000    0.75680    1.000
