# CIF file generated by openbabel 3.1.0, see https://openbabel.org
data_I
_chemical_name_common 'image0'
_cell_length_a 32.318
_cell_length_b 29.354
_cell_length_c 18.5232
_cell_angle_alpha 90
_cell_angle_beta 104.277
_cell_angle_gamma 90
_space_group_name_H-M_alt 'P 1'
_space_group_name_Hall 'P 1'
loop_
    _symmetry_equiv_pos_as_xyz
    x,y,z
loop_
    _atom_site_label
    _atom_site_type_symbol
    _atom_site_fract_x
    _atom_site_fract_y
    _atom_site_fract_z
    _atom_site_occupancy
    Er1      Er       0.01436    0.22832    0.04623    1.000
    O1       O        0.03692    0.20545    0.16360    1.000
    O2       O        0.04525    0.24637    0.26780    1.000
    O3       O        0.46091    0.18313    0.63610    1.000
    O4       O        0.45224    0.23387    0.54600    1.000
    O5       O        0.08177    0.77806    0.51880    1.000
    O6       O        0.04683    0.83988    0.51550    1.000
    O7       O        0.45260    0.79307    0.40890    1.000
    O8       O        0.44612    0.82973    0.30280    1.000
    C1       C        0.24582    0.03994    0.39850    1.000
    C2       C        0.20855    0.06385    0.36720    1.000
    H1       H        0.18370    0.04790    0.34570    1.000
    C3       C        0.20785    0.11092    0.36740    1.000
    C4       C        0.24458    0.13549    0.40210    1.000
    H2       H        0.24410    0.16720    0.40250    1.000
    C5       C        0.28184    0.11221    0.43600    1.000
    C6       C        0.28194    0.06445    0.43330    1.000
    H3       H        0.30690    0.04880    0.45540    1.000
    C7       C        0.16767    0.13716    0.32970    1.000
    C8       C        0.15455    0.17325    0.36640    1.000
    H4       H        0.17060    0.18100    0.41370    1.000
    C9       C        0.11854    0.19800    0.33510    1.000
    H5       H        0.11040    0.22220    0.36100    1.000
    C10      C        0.09444    0.18650    0.26460    1.000
    C11      C        0.10664    0.15034    0.22720    1.000
    H6       H        0.09080    0.14290    0.17960    1.000
    C12      C        0.14241    0.12505    0.26030    1.000
    H7       H        0.14960    0.09970    0.23580    1.000
    C13      C        0.05575    0.21519    0.22960    1.000
    C14      C        0.32140    0.13725    0.47250    1.000
    C15      C        0.34757    0.12020    0.53810    1.000
    H8       H        0.33950    0.09410    0.55950    1.000
    C16      C        0.38538    0.14160    0.57170    1.000
    H9       H        0.40250    0.12990    0.61560    1.000
    C17      C        0.39784    0.18030    0.54050    1.000
    C18      C        0.37149    0.19813    0.47710    1.000
    H10      H        0.37920    0.22480    0.45680    1.000
    C19      C        0.33358    0.17684    0.44320    1.000
    H11      H        0.31610    0.18930    0.40020    1.000
    C20      C        0.43986    0.20190    0.57660    1.000
    C21      C        0.24737    0.98985    0.40230    1.000
    C22      C        0.28265    0.96645    0.39330    1.000
    H12      H        0.30480    0.98260    0.38120    1.000
    C23      C        0.28630    0.91832    0.40210    1.000
    C24      C        0.25279    0.89496    0.41880    1.000
    H13      H        0.25450    0.86350    0.42450    1.000
    C25      C        0.21633    0.91777    0.42730    1.000
    C26      C        0.21416    0.96490    0.41930    1.000
    H14      H        0.19000    0.98020    0.42540    1.000
    C27      C        0.18148    0.89259    0.45000    1.000
    C28      C        0.11430    0.84600    0.48810    1.000
    C29      C        0.07927    0.81910    0.50810    1.000
    C30      C        0.32459    0.89410    0.39110    1.000
    C31      C        0.34066    0.85552    0.43520    1.000
    H15      H        0.32680    0.84530    0.47060    1.000
    C32      C        0.37638    0.83300    0.42640    1.000
    H16      H        0.38700    0.80820    0.45670    1.000
    C33      C        0.39677    0.84713    0.37230    1.000
    C34      C        0.38048    0.88396    0.32750    1.000
    H17      H        0.39300    0.89280    0.28950    1.000
    C35      C        0.34592    0.90734    0.33910    1.000
    H18      H        0.33660    0.93320    0.31060    1.000
    C36      C        0.43473    0.82094    0.35950    1.000
    C37      C        0.11400    0.88640    0.47790    1.000
    H19      H        0.09100    0.90310    0.48550    1.000
    C38      C        0.18170    0.85060    0.45470    1.000
    H20      H        0.19970    0.83300    0.43380    1.000
    C39      C        0.15150    0.82840    0.49570    1.000
    H21      H        0.15970    0.80280    0.52540    1.000
    C40      C        0.14630    0.90980    0.45540    1.000
    H22      H        0.14160    0.94050    0.44330    1.000
    Er2      Er       0.51436    0.72832    0.04623    1.000
    O9       O        0.53692    0.70545    0.16360    1.000
    O10      O        0.54525    0.74637    0.26780    1.000
    O11      O        0.96091    0.68313    0.63610    1.000
    O12      O        0.95224    0.73387    0.54600    1.000
    O13      O        0.58177    0.27806    0.51880    1.000
    O14      O        0.54683    0.33988    0.51550    1.000
    O15      O        0.95260    0.29307    0.40890    1.000
    O16      O        0.94612    0.32973    0.30280    1.000
    C41      C        0.74582    0.53994    0.39850    1.000
    C42      C        0.70855    0.56385    0.36720    1.000
    H23      H        0.68370    0.54790    0.34570    1.000
    C43      C        0.70785    0.61092    0.36740    1.000
    C44      C        0.74458    0.63549    0.40210    1.000
    H24      H        0.74410    0.66720    0.40250    1.000
    C45      C        0.78184    0.61221    0.43600    1.000
    C46      C        0.78194    0.56445    0.43330    1.000
    H25      H        0.80690    0.54880    0.45540    1.000
    C47      C        0.66767    0.63716    0.32970    1.000
    C48      C        0.65455    0.67325    0.36640    1.000
    H26      H        0.67060    0.68100    0.41370    1.000
    C49      C        0.61854    0.69800    0.33510    1.000
    H27      H        0.61040    0.72220    0.36100    1.000
    C50      C        0.59444    0.68650    0.26460    1.000
    C51      C        0.60664    0.65034    0.22720    1.000
    H28      H        0.59080    0.64290    0.17960    1.000
    C52      C        0.64241    0.62505    0.26030    1.000
    H29      H        0.64960    0.59970    0.23580    1.000
    C53      C        0.55575    0.71519    0.22960    1.000
    C54      C        0.82140    0.63725    0.47250    1.000
    C55      C        0.84757    0.62020    0.53810    1.000
    H30      H        0.83950    0.59410    0.55950    1.000
    C56      C        0.88538    0.64160    0.57170    1.000
    H31      H        0.90250    0.62990    0.61560    1.000
    C57      C        0.89784    0.68030    0.54050    1.000
    C58      C        0.87149    0.69813    0.47710    1.000
    H32      H        0.87920    0.72480    0.45680    1.000
    C59      C        0.83358    0.67684    0.44320    1.000
    H33      H        0.81610    0.68930    0.40020    1.000
    C60      C        0.93986    0.70190    0.57660    1.000
    C61      C        0.74737    0.48985    0.40230    1.000
    C62      C        0.78265    0.46645    0.39330    1.000
    H34      H        0.80480    0.48260    0.38120    1.000
    C63      C        0.78630    0.41832    0.40210    1.000
    C64      C        0.75279    0.39496    0.41880    1.000
    H35      H        0.75450    0.36350    0.42450    1.000
    C65      C        0.71633    0.41777    0.42730    1.000
    C66      C        0.71416    0.46490    0.41930    1.000
    H36      H        0.69000    0.48020    0.42540    1.000
    C67      C        0.68148    0.39259    0.45000    1.000
    C68      C        0.61430    0.34600    0.48810    1.000
    C69      C        0.57927    0.31910    0.50810    1.000
    C70      C        0.82459    0.39410    0.39110    1.000
    C71      C        0.84066    0.35552    0.43520    1.000
    H37      H        0.82680    0.34530    0.47060    1.000
    C72      C        0.87638    0.33300    0.42640    1.000
    H38      H        0.88700    0.30820    0.45670    1.000
    C73      C        0.89677    0.34713    0.37230    1.000
    C74      C        0.88048    0.38396    0.32750    1.000
    H39      H        0.89300    0.39280    0.28950    1.000
    C75      C        0.84592    0.40734    0.33910    1.000
    H40      H        0.83660    0.43320    0.31060    1.000
    C76      C        0.93473    0.32094    0.35950    1.000
    C77      C        0.61400    0.38640    0.47790    1.000
    H41      H        0.59100    0.40310    0.48550    1.000
    C78      C        0.68170    0.35060    0.45470    1.000
    H42      H        0.69970    0.33300    0.43380    1.000
    C79      C        0.65150    0.32840    0.49570    1.000
    H43      H        0.65970    0.30280    0.52540    1.000
    C80      C        0.64630    0.40980    0.45540    1.000
    H44      H        0.64160    0.44050    0.44330    1.000
    Er3      Er       0.98564    0.22832    0.45377    1.000
    O17      O        0.96308    0.20545    0.33640    1.000
    O18      O        0.95475    0.24637    0.23220    1.000
    O19      O        0.53909    0.18313    0.86390    1.000
    O20      O        0.54776    0.23387    0.95400    1.000
    O21      O        0.91823    0.77806    0.98120    1.000
    O22      O        0.95317    0.83988    0.98450    1.000
    O23      O        0.54740    0.79307    0.09110    1.000
    O24      O        0.55388    0.82973    0.19720    1.000
    C81      C        0.75418    0.03994    0.10150    1.000
    C82      C        0.79145    0.06385    0.13280    1.000
    H45      H        0.81630    0.04790    0.15430    1.000
    C83      C        0.79215    0.11092    0.13260    1.000
    C84      C        0.75542    0.13549    0.09790    1.000
    H46      H        0.75590    0.16720    0.09750    1.000
    C85      C        0.71816    0.11221    0.06400    1.000
    C86      C        0.71806    0.06445    0.06670    1.000
    H47      H        0.69310    0.04880    0.04460    1.000
    C87      C        0.83233    0.13716    0.17030    1.000
    C88      C        0.84545    0.17325    0.13360    1.000
    H48      H        0.82940    0.18100    0.08630    1.000
    C89      C        0.88146    0.19800    0.16490    1.000
    H49      H        0.88960    0.22220    0.13900    1.000
    C90      C        0.90556    0.18650    0.23540    1.000
    C91      C        0.89336    0.15034    0.27280    1.000
    H50      H        0.90920    0.14290    0.32040    1.000
    C92      C        0.85759    0.12505    0.23970    1.000
    H51      H        0.85040    0.09970    0.26420    1.000
    C93      C        0.94425    0.21519    0.27040    1.000
    C94      C        0.67860    0.13725    0.02750    1.000
    C95      C        0.65243    0.12020    0.96190    1.000
    H52      H        0.66050    0.09410    0.94050    1.000
    C96      C        0.61462    0.14160    0.92830    1.000
    H53      H        0.59750    0.12990    0.88440    1.000
    C97      C        0.60216    0.18030    0.95950    1.000
    C98      C        0.62851    0.19813    0.02290    1.000
    H54      H        0.62080    0.22480    0.04320    1.000
    C99      C        0.66642    0.17684    0.05680    1.000
    H55      H        0.68390    0.18930    0.09980    1.000
    C100     C        0.56014    0.20190    0.92340    1.000
    C101     C        0.75263    0.98985    0.09770    1.000
    C102     C        0.71735    0.96645    0.10670    1.000
    H56      H        0.69520    0.98260    0.11880    1.000
    C103     C        0.71370    0.91832    0.09790    1.000
    C104     C        0.74721    0.89496    0.08120    1.000
    H57      H        0.74550    0.86350    0.07550    1.000
    C105     C        0.78367    0.91777    0.07270    1.000
    C106     C        0.78584    0.96490    0.08070    1.000
    H58      H        0.81000    0.98020    0.07460    1.000
    C107     C        0.81852    0.89259    0.05000    1.000
    C108     C        0.88570    0.84600    0.01190    1.000
    C109     C        0.92073    0.81910    0.99190    1.000
    C110     C        0.67541    0.89410    0.10890    1.000
    C111     C        0.65934    0.85552    0.06480    1.000
    H59      H        0.67320    0.84530    0.02940    1.000
    C112     C        0.62362    0.83300    0.07360    1.000
    H60      H        0.61300    0.80820    0.04330    1.000
    C113     C        0.60323    0.84713    0.12770    1.000
    C114     C        0.61952    0.88396    0.17250    1.000
    H61      H        0.60700    0.89280    0.21050    1.000
    C115     C        0.65408    0.90734    0.16090    1.000
    H62      H        0.66340    0.93320    0.18940    1.000
    C116     C        0.56527    0.82094    0.14050    1.000
    C117     C        0.88600    0.88640    0.02210    1.000
    H63      H        0.90900    0.90310    0.01450    1.000
    C118     C        0.81830    0.85060    0.04530    1.000
    H64      H        0.80030    0.83300    0.06620    1.000
    C119     C        0.84850    0.82840    0.00430    1.000
    H65      H        0.84030    0.80280    0.97460    1.000
    C120     C        0.85370    0.90980    0.04460    1.000
    H66      H        0.85840    0.94050    0.05670    1.000
    Er4      Er       0.48564    0.72832    0.45377    1.000
    O25      O        0.46308    0.70545    0.33640    1.000
    O26      O        0.45475    0.74637    0.23220    1.000
    O27      O        0.03909    0.68313    0.86390    1.000
    O28      O        0.04776    0.73387    0.95400    1.000
    O29      O        0.41823    0.27806    0.98120    1.000
    O30      O        0.45317    0.33988    0.98450    1.000
    O31      O        0.04740    0.29307    0.09110    1.000
    O32      O        0.05388    0.32973    0.19720    1.000
    C121     C        0.25418    0.53994    0.10150    1.000
    C122     C        0.29145    0.56385    0.13280    1.000
    H67      H        0.31630    0.54790    0.15430    1.000
    C123     C        0.29215    0.61092    0.13260    1.000
    C124     C        0.25542    0.63549    0.09790    1.000
    H68      H        0.25590    0.66720    0.09750    1.000
    C125     C        0.21816    0.61221    0.06400    1.000
    C126     C        0.21806    0.56445    0.06670    1.000
    H69      H        0.19310    0.54880    0.04460    1.000
    C127     C        0.33233    0.63716    0.17030    1.000
    C128     C        0.34545    0.67325    0.13360    1.000
    H70      H        0.32940    0.68100    0.08630    1.000
    C129     C        0.38146    0.69800    0.16490    1.000
    H71      H        0.38960    0.72220    0.13900    1.000
    C130     C        0.40556    0.68650    0.23540    1.000
    C131     C        0.39336    0.65034    0.27280    1.000
    H72      H        0.40920    0.64290    0.32040    1.000
    C132     C        0.35759    0.62505    0.23970    1.000
    H73      H        0.35040    0.59970    0.26420    1.000
    C133     C        0.44425    0.71519    0.27040    1.000
    C134     C        0.17860    0.63725    0.02750    1.000
    C135     C        0.15243    0.62020    0.96190    1.000
    H74      H        0.16050    0.59410    0.94050    1.000
    C136     C        0.11462    0.64160    0.92830    1.000
    H75      H        0.09750    0.62990    0.88440    1.000
    C137     C        0.10216    0.68030    0.95950    1.000
    C138     C        0.12851    0.69813    0.02290    1.000
    H76      H        0.12080    0.72480    0.04320    1.000
    C139     C        0.16642    0.67684    0.05680    1.000
    H77      H        0.18390    0.68930    0.09980    1.000
    C140     C        0.06014    0.70190    0.92340    1.000
    C141     C        0.25263    0.48985    0.09770    1.000
    C142     C        0.21735    0.46645    0.10670    1.000
    H78      H        0.19520    0.48260    0.11880    1.000
    C143     C        0.21370    0.41832    0.09790    1.000
    C144     C        0.24721    0.39496    0.08120    1.000
    H79      H        0.24550    0.36350    0.07550    1.000
    C145     C        0.28367    0.41777    0.07270    1.000
    C146     C        0.28584    0.46490    0.08070    1.000
    H80      H        0.31000    0.48020    0.07460    1.000
    C147     C        0.31852    0.39259    0.05000    1.000
    C148     C        0.38570    0.34600    0.01190    1.000
    C149     C        0.42073    0.31910    0.99190    1.000
    C150     C        0.17541    0.39410    0.10890    1.000
    C151     C        0.15934    0.35552    0.06480    1.000
    H81      H        0.17320    0.34530    0.02940    1.000
    C152     C        0.12362    0.33300    0.07360    1.000
    H82      H        0.11300    0.30820    0.04330    1.000
    C153     C        0.10323    0.34713    0.12770    1.000
    C154     C        0.11952    0.38396    0.17250    1.000
    H83      H        0.10700    0.39280    0.21050    1.000
    C155     C        0.15408    0.40734    0.16090    1.000
    H84      H        0.16340    0.43320    0.18940    1.000
    C156     C        0.06527    0.32094    0.14050    1.000
    C157     C        0.38600    0.38640    0.02210    1.000
    H85      H        0.40900    0.40310    0.01450    1.000
    C158     C        0.31830    0.35060    0.04530    1.000
    H86      H        0.30030    0.33300    0.06620    1.000
    C159     C        0.34850    0.32840    0.00430    1.000
    H87      H        0.34030    0.30280    0.97460    1.000
    C160     C        0.35370    0.40980    0.04460    1.000
    H88      H        0.35840    0.44050    0.05670    1.000
    Er5      Er       0.98564    0.77168    0.95377    1.000
    O33      O        0.96308    0.79455    0.83640    1.000
    O34      O        0.95475    0.75363    0.73220    1.000
    O35      O        0.53909    0.81687    0.36390    1.000
    O36      O        0.54776    0.76613    0.45400    1.000
    O37      O        0.91823    0.22194    0.48120    1.000
    O38      O        0.95317    0.16012    0.48450    1.000
    O39      O        0.54740    0.20693    0.59110    1.000
    O40      O        0.55388    0.17027    0.69720    1.000
    C161     C        0.75418    0.96006    0.60150    1.000
    C162     C        0.79145    0.93615    0.63280    1.000
    H89      H        0.81630    0.95210    0.65430    1.000
    C163     C        0.79215    0.88908    0.63260    1.000
    C164     C        0.75542    0.86451    0.59790    1.000
    H90      H        0.75590    0.83280    0.59750    1.000
    C165     C        0.71816    0.88779    0.56400    1.000
    C166     C        0.71806    0.93555    0.56670    1.000
    H91      H        0.69310    0.95120    0.54460    1.000
    C167     C        0.83233    0.86284    0.67030    1.000
    C168     C        0.84545    0.82675    0.63360    1.000
    H92      H        0.82940    0.81900    0.58630    1.000
    C169     C        0.88146    0.80200    0.66490    1.000
    H93      H        0.88960    0.77780    0.63900    1.000
    C170     C        0.90556    0.81350    0.73540    1.000
    C171     C        0.89336    0.84966    0.77280    1.000
    H94      H        0.90920    0.85710    0.82040    1.000
    C172     C        0.85759    0.87495    0.73970    1.000
    H95      H        0.85040    0.90030    0.76420    1.000
    C173     C        0.94425    0.78481    0.77040    1.000
    C174     C        0.67860    0.86275    0.52750    1.000
    C175     C        0.65243    0.87980    0.46190    1.000
    H96      H        0.66050    0.90590    0.44050    1.000
    C176     C        0.61462    0.85840    0.42830    1.000
    H97      H        0.59750    0.87010    0.38440    1.000
    C177     C        0.60216    0.81970    0.45950    1.000
    C178     C        0.62851    0.80187    0.52290    1.000
    H98      H        0.62080    0.77520    0.54320    1.000
    C179     C        0.66642    0.82316    0.55680    1.000
    H99      H        0.68390    0.81070    0.59980    1.000
    C180     C        0.56014    0.79810    0.42340    1.000
    C181     C        0.75263    0.01015    0.59770    1.000
    C182     C        0.71735    0.03355    0.60670    1.000
    H100     H        0.69520    0.01740    0.61880    1.000
    C183     C        0.71370    0.08168    0.59790    1.000
    C184     C        0.74721    0.10504    0.58120    1.000
    H101     H        0.74550    0.13650    0.57550    1.000
    C185     C        0.78367    0.08223    0.57270    1.000
    C186     C        0.78584    0.03510    0.58070    1.000
    H102     H        0.81000    0.01980    0.57460    1.000
    C187     C        0.81852    0.10741    0.55000    1.000
    C188     C        0.88570    0.15400    0.51190    1.000
    C189     C        0.92073    0.18090    0.49190    1.000
    C190     C        0.67541    0.10590    0.60890    1.000
    C191     C        0.65934    0.14448    0.56480    1.000
    H103     H        0.67320    0.15470    0.52940    1.000
    C192     C        0.62362    0.16700    0.57360    1.000
    H104     H        0.61300    0.19180    0.54330    1.000
    C193     C        0.60323    0.15287    0.62770    1.000
    C194     C        0.61952    0.11604    0.67250    1.000
    H105     H        0.60700    0.10720    0.71050    1.000
    C195     C        0.65408    0.09266    0.66090    1.000
    H106     H        0.66340    0.06680    0.68940    1.000
    C196     C        0.56527    0.17906    0.64050    1.000
    C197     C        0.88600    0.11360    0.52210    1.000
    H107     H        0.90900    0.09690    0.51450    1.000
    C198     C        0.81830    0.14940    0.54530    1.000
    H108     H        0.80030    0.16700    0.56620    1.000
    C199     C        0.84850    0.17160    0.50430    1.000
    H109     H        0.84030    0.19720    0.47460    1.000
    C200     C        0.85370    0.09020    0.54460    1.000
    H110     H        0.85840    0.05950    0.55670    1.000
    Er6      Er       0.48564    0.27168    0.95377    1.000
    O41      O        0.46308    0.29455    0.83640    1.000
    O42      O        0.45475    0.25363    0.73220    1.000
    O43      O        0.03909    0.31687    0.36390    1.000
    O44      O        0.04776    0.26613    0.45400    1.000
    O45      O        0.41823    0.72194    0.48120    1.000
    O46      O        0.45317    0.66012    0.48450    1.000
    O47      O        0.04740    0.70693    0.59110    1.000
    O48      O        0.05388    0.67027    0.69720    1.000
    C201     C        0.25418    0.46006    0.60150    1.000
    C202     C        0.29145    0.43615    0.63280    1.000
    H111     H        0.31630    0.45210    0.65430    1.000
    C203     C        0.29215    0.38908    0.63260    1.000
    C204     C        0.25542    0.36451    0.59790    1.000
    H112     H        0.25590    0.33280    0.59750    1.000
    C205     C        0.21816    0.38779    0.56400    1.000
    C206     C        0.21806    0.43555    0.56670    1.000
    H113     H        0.19310    0.45120    0.54460    1.000
    C207     C        0.33233    0.36284    0.67030    1.000
    C208     C        0.34545    0.32675    0.63360    1.000
    H114     H        0.32940    0.31900    0.58630    1.000
    C209     C        0.38146    0.30200    0.66490    1.000
    H115     H        0.38960    0.27780    0.63900    1.000
    C210     C        0.40556    0.31350    0.73540    1.000
    C211     C        0.39336    0.34966    0.77280    1.000
    H116     H        0.40920    0.35710    0.82040    1.000
    C212     C        0.35759    0.37495    0.73970    1.000
    H117     H        0.35040    0.40030    0.76420    1.000
    C213     C        0.44425    0.28481    0.77040    1.000
    C214     C        0.17860    0.36275    0.52750    1.000
    C215     C        0.15243    0.37980    0.46190    1.000
    H118     H        0.16050    0.40590    0.44050    1.000
    C216     C        0.11462    0.35840    0.42830    1.000
    H119     H        0.09750    0.37010    0.38440    1.000
    C217     C        0.10216    0.31970    0.45950    1.000
    C218     C        0.12851    0.30187    0.52290    1.000
    H120     H        0.12080    0.27520    0.54320    1.000
    C219     C        0.16642    0.32316    0.55680    1.000
    H121     H        0.18390    0.31070    0.59980    1.000
    C220     C        0.06014    0.29810    0.42340    1.000
    C221     C        0.25263    0.51015    0.59770    1.000
    C222     C        0.21735    0.53355    0.60670    1.000
    H122     H        0.19520    0.51740    0.61880    1.000
    C223     C        0.21370    0.58168    0.59790    1.000
    C224     C        0.24721    0.60504    0.58120    1.000
    H123     H        0.24550    0.63650    0.57550    1.000
    C225     C        0.28367    0.58223    0.57270    1.000
    C226     C        0.28584    0.53510    0.58070    1.000
    H124     H        0.31000    0.51980    0.57460    1.000
    C227     C        0.31852    0.60741    0.55000    1.000
    C228     C        0.38570    0.65400    0.51190    1.000
    C229     C        0.42073    0.68090    0.49190    1.000
    C230     C        0.17541    0.60590    0.60890    1.000
    C231     C        0.15934    0.64448    0.56480    1.000
    H125     H        0.17320    0.65470    0.52940    1.000
    C232     C        0.12362    0.66700    0.57360    1.000
    H126     H        0.11300    0.69180    0.54330    1.000
    C233     C        0.10323    0.65287    0.62770    1.000
    C234     C        0.11952    0.61604    0.67250    1.000
    H127     H        0.10700    0.60720    0.71050    1.000
    C235     C        0.15408    0.59266    0.66090    1.000
    H128     H        0.16340    0.56680    0.68940    1.000
    C236     C        0.06527    0.67906    0.64050    1.000
    C237     C        0.38600    0.61360    0.52210    1.000
    H129     H        0.40900    0.59690    0.51450    1.000
    C238     C        0.31830    0.64940    0.54530    1.000
    H130     H        0.30030    0.66700    0.56620    1.000
    C239     C        0.34850    0.67160    0.50430    1.000
    H131     H        0.34030    0.69720    0.47460    1.000
    C240     C        0.35370    0.59020    0.54460    1.000
    H132     H        0.35840    0.55950    0.55670    1.000
    Er7      Er       0.01436    0.77168    0.54623    1.000
    O49      O        0.03692    0.79455    0.66360    1.000
    O50      O        0.04525    0.75363    0.76780    1.000
    O51      O        0.46091    0.81687    0.13610    1.000
    O52      O        0.45224    0.76613    0.04600    1.000
    O53      O        0.08177    0.22194    0.01880    1.000
    O54      O        0.04683    0.16012    0.01550    1.000
    O55      O        0.45260    0.20693    0.90890    1.000
    O56      O        0.44612    0.17027    0.80280    1.000
    C241     C        0.24582    0.96006    0.89850    1.000
    C242     C        0.20855    0.93615    0.86720    1.000
    H133     H        0.18370    0.95210    0.84570    1.000
    C243     C        0.20785    0.88908    0.86740    1.000
    C244     C        0.24458    0.86451    0.90210    1.000
    H134     H        0.24410    0.83280    0.90250    1.000
    C245     C        0.28184    0.88779    0.93600    1.000
    C246     C        0.28194    0.93555    0.93330    1.000
    H135     H        0.30690    0.95120    0.95540    1.000
    C247     C        0.16767    0.86284    0.82970    1.000
    C248     C        0.15455    0.82675    0.86640    1.000
    H136     H        0.17060    0.81900    0.91370    1.000
    C249     C        0.11854    0.80200    0.83510    1.000
    H137     H        0.11040    0.77780    0.86100    1.000
    C250     C        0.09444    0.81350    0.76460    1.000
    C251     C        0.10664    0.84966    0.72720    1.000
    H138     H        0.09080    0.85710    0.67960    1.000
    C252     C        0.14241    0.87495    0.76030    1.000
    H139     H        0.14960    0.90030    0.73580    1.000
    C253     C        0.05575    0.78481    0.72960    1.000
    C254     C        0.32140    0.86275    0.97250    1.000
    C255     C        0.34757    0.87980    0.03810    1.000
    H140     H        0.33950    0.90590    0.05950    1.000
    C256     C        0.38538    0.85840    0.07170    1.000
    H141     H        0.40250    0.87010    0.11560    1.000
    C257     C        0.39784    0.81970    0.04050    1.000
    C258     C        0.37149    0.80187    0.97710    1.000
    H142     H        0.37920    0.77520    0.95680    1.000
    C259     C        0.33358    0.82316    0.94320    1.000
    H143     H        0.31610    0.81070    0.90020    1.000
    C260     C        0.43986    0.79810    0.07660    1.000
    C261     C        0.24737    0.01015    0.90230    1.000
    C262     C        0.28265    0.03355    0.89330    1.000
    H144     H        0.30480    0.01740    0.88120    1.000
    C263     C        0.28630    0.08168    0.90210    1.000
    C264     C        0.25279    0.10504    0.91880    1.000
    H145     H        0.25450    0.13650    0.92450    1.000
    C265     C        0.21633    0.08223    0.92730    1.000
    C266     C        0.21416    0.03510    0.91930    1.000
    H146     H        0.19000    0.01980    0.92540    1.000
    C267     C        0.18148    0.10741    0.95000    1.000
    C268     C        0.11430    0.15400    0.98810    1.000
    C269     C        0.07927    0.18090    0.00810    1.000
    C270     C        0.32459    0.10590    0.89110    1.000
    C271     C        0.34066    0.14448    0.93520    1.000
    H147     H        0.32680    0.15470    0.97060    1.000
    C272     C        0.37638    0.16700    0.92640    1.000
    H148     H        0.38700    0.19180    0.95670    1.000
    C273     C        0.39677    0.15287    0.87230    1.000
    C274     C        0.38048    0.11604    0.82750    1.000
    H149     H        0.39300    0.10720    0.78950    1.000
    C275     C        0.34592    0.09266    0.83910    1.000
    H150     H        0.33660    0.06680    0.81060    1.000
    C276     C        0.43473    0.17906    0.85950    1.000
    C277     C        0.11400    0.11360    0.97790    1.000
    H151     H        0.09100    0.09690    0.98550    1.000
    C278     C        0.18170    0.14940    0.95470    1.000
    H152     H        0.19970    0.16700    0.93380    1.000
    C279     C        0.15150    0.17160    0.99570    1.000
    H153     H        0.15970    0.19720    0.02540    1.000
    C280     C        0.14630    0.09020    0.95540    1.000
    H154     H        0.14160    0.05950    0.94330    1.000
    Er8      Er       0.51436    0.27168    0.54623    1.000
    O57      O        0.53692    0.29455    0.66360    1.000
    O58      O        0.54525    0.25363    0.76780    1.000
    O59      O        0.96091    0.31687    0.13610    1.000
    O60      O        0.95224    0.26613    0.04600    1.000
    O61      O        0.58177    0.72194    0.01880    1.000
    O62      O        0.54683    0.66012    0.01550    1.000
    O63      O        0.95260    0.70693    0.90890    1.000
    O64      O        0.94612    0.67027    0.80280    1.000
    C281     C        0.74582    0.46006    0.89850    1.000
    C282     C        0.70855    0.43615    0.86720    1.000
    H155     H        0.68370    0.45210    0.84570    1.000
    C283     C        0.70785    0.38908    0.86740    1.000
    C284     C        0.74458    0.36451    0.90210    1.000
    H156     H        0.74410    0.33280    0.90250    1.000
    C285     C        0.78184    0.38779    0.93600    1.000
    C286     C        0.78194    0.43555    0.93330    1.000
    H157     H        0.80690    0.45120    0.95540    1.000
    C287     C        0.66767    0.36284    0.82970    1.000
    C288     C        0.65455    0.32675    0.86640    1.000
    H158     H        0.67060    0.31900    0.91370    1.000
    C289     C        0.61854    0.30200    0.83510    1.000
    H159     H        0.61040    0.27780    0.86100    1.000
    C290     C        0.59444    0.31350    0.76460    1.000
    C291     C        0.60664    0.34966    0.72720    1.000
    H160     H        0.59080    0.35710    0.67960    1.000
    C292     C        0.64241    0.37495    0.76030    1.000
    H161     H        0.64960    0.40030    0.73580    1.000
    C293     C        0.55575    0.28481    0.72960    1.000
    C294     C        0.82140    0.36275    0.97250    1.000
    C295     C        0.84757    0.37980    0.03810    1.000
    H162     H        0.83950    0.40590    0.05950    1.000
    C296     C        0.88538    0.35840    0.07170    1.000
    H163     H        0.90250    0.37010    0.11560    1.000
    C297     C        0.89784    0.31970    0.04050    1.000
    C298     C        0.87149    0.30187    0.97710    1.000
    H164     H        0.87920    0.27520    0.95680    1.000
    C299     C        0.83358    0.32316    0.94320    1.000
    H165     H        0.81610    0.31070    0.90020    1.000
    C300     C        0.93986    0.29810    0.07660    1.000
    C301     C        0.74737    0.51015    0.90230    1.000
    C302     C        0.78265    0.53355    0.89330    1.000
    H166     H        0.80480    0.51740    0.88120    1.000
    C303     C        0.78630    0.58168    0.90210    1.000
    C304     C        0.75279    0.60504    0.91880    1.000
    H167     H        0.75450    0.63650    0.92450    1.000
    C305     C        0.71633    0.58223    0.92730    1.000
    C306     C        0.71416    0.53510    0.91930    1.000
    H168     H        0.69000    0.51980    0.92540    1.000
    C307     C        0.68148    0.60741    0.95000    1.000
    C308     C        0.61430    0.65400    0.98810    1.000
    C309     C        0.57927    0.68090    0.00810    1.000
    C310     C        0.82459    0.60590    0.89110    1.000
    C311     C        0.84066    0.64448    0.93520    1.000
    H169     H        0.82680    0.65470    0.97060    1.000
    C312     C        0.87638    0.66700    0.92640    1.000
    H170     H        0.88700    0.69180    0.95670    1.000
    C313     C        0.89677    0.65287    0.87230    1.000
    C314     C        0.88048    0.61604    0.82750    1.000
    H171     H        0.89300    0.60720    0.78950    1.000
    C315     C        0.84592    0.59266    0.83910    1.000
    H172     H        0.83660    0.56680    0.81060    1.000
    C316     C        0.93473    0.67906    0.85950    1.000
    C317     C        0.61400    0.61360    0.97790    1.000
    H173     H        0.59100    0.59690    0.98550    1.000
    C318     C        0.68170    0.64940    0.95470    1.000
    H174     H        0.69970    0.66700    0.93380    1.000
    C319     C        0.65150    0.67160    0.99570    1.000
    H175     H        0.65970    0.69720    0.02540    1.000
    C320     C        0.64630    0.59020    0.95540    1.000
    H176     H        0.64160    0.55950    0.94330    1.000
    Er9      Er       0.00000    0.30618    0.25000    1.000
    Er10     Er       0.50000    0.80618    0.25000    1.000
    Er11     Er       0.00000    0.69382    0.75000    1.000
    Er12     Er       0.50000    0.19382    0.75000    1.000
