# CIF file generated by openbabel 3.1.0, see https://openbabel.org
data_I
_chemical_name_common 'ETEKAQ_clean'
_cell_length_a 10.5226
_cell_length_b 11.0545
_cell_length_c 12.7711
_cell_angle_alpha 103.826
_cell_angle_beta 110.024
_cell_angle_gamma 96.602
_space_group_name_H-M_alt 'P 1'
_space_group_name_Hall 'P 1'
loop_
    _symmetry_equiv_pos_as_xyz
    x,y,z
loop_
    _atom_site_label
    _atom_site_type_symbol
    _atom_site_fract_x
    _atom_site_fract_y
    _atom_site_fract_z
    _atom_site_occupancy
    Gd1      Gd       0.89696    0.45217    0.31832    1.000
    Gd2      Gd       0.10304    0.54783    0.68168    1.000
    H1       H        0.05690    0.87430    0.70320    1.000
    H2       H        0.75170    0.60460    0.74220    1.000
    H3       H        0.81600    0.08350    0.04670    1.000
    H4       H        0.99820    0.85130    0.33930    1.000
    H5       H        0.58820    0.44070    0.35760    1.000
    H6       H        0.44100    0.16280    0.11380    1.000
    H7       H        0.94310    0.12570    0.29680    1.000
    H8       H        0.24830    0.39540    0.25780    1.000
    H9       H        0.18400    0.91650    0.95330    1.000
    H10      H        0.00180    0.14870    0.66070    1.000
    H11      H        0.41180    0.55930    0.64240    1.000
    H12      H        0.55900    0.83720    0.88620    1.000
    C1       C        0.02350    0.97010    0.60520    1.000
    C2       C        0.02180    0.87880    0.50660    1.000
    C3       C        0.99870    0.91160    0.40420    1.000
    C4       C        0.03860    0.74640    0.50720    1.000
    C5       C        0.58900    0.55080    0.61750    1.000
    C6       C        0.64270    0.51540    0.53070    1.000
    C7       C        0.55250    0.46480    0.41490    1.000
    C8       C        0.79370    0.53130    0.56110    1.000
    C9       C        0.63590    0.01160    0.00490    1.000
    C10      C        0.59990    0.10910    0.07360    1.000
    C11      C        0.46450    0.09720    0.06810    1.000
    C12      C        0.70470    0.22840    0.15330    1.000
    C13      C        0.97650    0.02990    0.39480    1.000
    C14      C        0.97820    0.12120    0.49340    1.000
    C15      C        0.00130    0.08840    0.59580    1.000
    C16      C        0.96140    0.25360    0.49280    1.000
    C17      C        0.41100    0.44920    0.38250    1.000
    C18      C        0.35730    0.48460    0.46930    1.000
    C19      C        0.44750    0.53520    0.58510    1.000
    C20      C        0.20630    0.46870    0.43890    1.000
    C21      C        0.36410    0.98840    0.99510    1.000
    C22      C        0.40010    0.89090    0.92640    1.000
    C23      C        0.53550    0.90280    0.93190    1.000
    C24      C        0.29530    0.77160    0.84670    1.000
    O1       O        0.01660    0.66630    0.41240    1.000
    O2       O        0.07310    0.72550    0.60570    1.000
    O3       O        0.04500    0.94720    0.70830    1.000
    O4       O        0.84100    0.50630    0.48240    1.000
    O5       O        0.87440    0.57000    0.66830    1.000
    O6       O        0.67020    0.60150    0.73300    1.000
    O7       O        0.82450    0.24560    0.15160    1.000
    O8       O        0.67070    0.31010    0.21930    1.000
    O9       O        0.76490    0.01480    0.00360    1.000
    O10      O        0.98340    0.33370    0.58760    1.000
    O11      O        0.92690    0.27450    0.39430    1.000
    O12      O        0.95500    0.05280    0.29170    1.000
    O13      O        0.15900    0.49370    0.51760    1.000
    O14      O        0.12560    0.43000    0.33170    1.000
    O15      O        0.32980    0.39850    0.26700    1.000
    O16      O        0.17550    0.75440    0.84840    1.000
    O17      O        0.32930    0.68990    0.78070    1.000
    O18      O        0.23510    0.98520    0.99640    1.000
