# CIF file generated by openbabel 3.1.0, see https://openbabel.org
data_I
_chemical_name_common 'image0'
_cell_length_a 15.486
_cell_length_b 9.815
_cell_length_c 9.8365
_cell_angle_alpha 90
_cell_angle_beta 105.99
_cell_angle_gamma 90
_space_group_name_H-M_alt 'P 1'
_space_group_name_Hall 'P 1'
loop_
    _symmetry_equiv_pos_as_xyz
    x,y,z
loop_
    _atom_site_label
    _atom_site_type_symbol
    _atom_site_fract_x
    _atom_site_fract_y
    _atom_site_fract_z
    _atom_site_occupancy
    Zn1      Zn       0.55238    0.17945    0.44840    1.000
    Zn2      Zn       0.94569    0.08485    0.67825    1.000
    P1       P        0.73378    0.01800    0.59808    1.000
    H1       H        0.33800    0.41200    0.13000    1.000
    H2       H        0.63800    0.94500    0.68200    1.000
    P2       P        0.48399    0.39513    0.20839    1.000
    P3       P        0.98531    0.79078    0.56132    1.000
    H3       H        0.85600    0.82500    0.46500    1.000
    O1       O        0.67627    0.13880    0.53710    1.000
    O2       O        0.54566    0.35340    0.35270    1.000
    O3       O        0.82369    0.05610    0.69640    1.000
    O4       O        0.99415    0.90700    0.66430    1.000
    O5       O        0.74734    0.92500    0.47960    1.000
    O6       O        0.68613    0.92950    0.68850    1.000
    O7       O        0.48733    0.29380    0.09210    1.000
    O8       O        0.51586    0.53680    0.17400    1.000
    O9       O        0.38724    0.40210    0.22100    1.000
    O10      O        0.05563    0.79500    0.47850    1.000
    O11      O        0.99089    0.65310    0.63500    1.000
    O12      O        0.89213    0.79620    0.44520    1.000
    Zn3      Zn       0.44762    0.67945    0.05160    1.000
    Zn4      Zn       0.05431    0.58485    0.82175    1.000
    P4       P        0.26622    0.51800    0.90192    1.000
    H4       H        0.66200    0.91200    0.37000    1.000
    H5       H        0.36200    0.44500    0.81800    1.000
    P5       P        0.51601    0.89513    0.29161    1.000
    P6       P        0.01469    0.29078    0.93868    1.000
    H6       H        0.14400    0.32500    0.03500    1.000
    O13      O        0.32373    0.63880    0.96290    1.000
    O14      O        0.45434    0.85340    0.14730    1.000
    O15      O        0.17631    0.55610    0.80360    1.000
    O16      O        0.00585    0.40700    0.83570    1.000
    O17      O        0.25266    0.42500    0.02040    1.000
    O18      O        0.31387    0.42950    0.81150    1.000
    O19      O        0.51267    0.79380    0.40790    1.000
    O20      O        0.48414    0.03680    0.32600    1.000
    O21      O        0.61276    0.90210    0.27900    1.000
    O22      O        0.94437    0.29500    0.02150    1.000
    O23      O        0.00911    0.15310    0.86500    1.000
    O24      O        0.10787    0.29620    0.05480    1.000
    Zn5      Zn       0.44762    0.82055    0.55160    1.000
    Zn6      Zn       0.05431    0.91515    0.32175    1.000
    P7       P        0.26622    0.98200    0.40192    1.000
    H7       H        0.66200    0.58800    0.87000    1.000
    H8       H        0.36200    0.05500    0.31800    1.000
    P8       P        0.51601    0.60487    0.79161    1.000
    P9       P        0.01469    0.20922    0.43868    1.000
    H9       H        0.14400    0.17500    0.53500    1.000
    O25      O        0.32373    0.86120    0.46290    1.000
    O26      O        0.45434    0.64660    0.64730    1.000
    O27      O        0.17631    0.94390    0.30360    1.000
    O28      O        0.00585    0.09300    0.33570    1.000
    O29      O        0.25266    0.07500    0.52040    1.000
    O30      O        0.31387    0.07050    0.31150    1.000
    O31      O        0.51267    0.70620    0.90790    1.000
    O32      O        0.48414    0.46320    0.82600    1.000
    O33      O        0.61276    0.59790    0.77900    1.000
    O34      O        0.94437    0.20500    0.52150    1.000
    O35      O        0.00911    0.34690    0.36500    1.000
    O36      O        0.10787    0.20380    0.55480    1.000
    Zn7      Zn       0.55238    0.32055    0.94840    1.000
    Zn8      Zn       0.94569    0.41515    0.17825    1.000
    P10      P        0.73378    0.48200    0.09808    1.000
    H10      H        0.33800    0.08800    0.63000    1.000
    H11      H        0.63800    0.55500    0.18200    1.000
    P11      P        0.48399    0.10487    0.70839    1.000
    P12      P        0.98531    0.70922    0.06132    1.000
    H12      H        0.85600    0.67500    0.96500    1.000
    O37      O        0.67627    0.36120    0.03710    1.000
    O38      O        0.54566    0.14660    0.85270    1.000
    O39      O        0.82369    0.44390    0.19640    1.000
    O40      O        0.99415    0.59300    0.16430    1.000
    O41      O        0.74734    0.57500    0.97960    1.000
    O42      O        0.68613    0.57050    0.18850    1.000
    O43      O        0.48733    0.20620    0.59210    1.000
    O44      O        0.51586    0.96320    0.67400    1.000
    O45      O        0.38724    0.09790    0.72100    1.000
    O46      O        0.05563    0.70500    0.97850    1.000
    O47      O        0.99089    0.84690    0.13500    1.000
    O48      O        0.89213    0.70380    0.94520    1.000
