# CIF file generated by openbabel 3.1.0, see https://openbabel.org
data_I
_chemical_name_common 'image0'
_cell_length_a 14.2928
_cell_length_b 10.244
_cell_length_c 18.9901
_cell_angle_alpha 90
_cell_angle_beta 96.658
_cell_angle_gamma 90
_space_group_name_H-M_alt 'P 1'
_space_group_name_Hall 'P 1'
loop_
    _symmetry_equiv_pos_as_xyz
    x,y,z
loop_
    _atom_site_label
    _atom_site_type_symbol
    _atom_site_fract_x
    _atom_site_fract_y
    _atom_site_fract_z
    _atom_site_occupancy
    V1       V        0.15540    0.61470    0.08940    1.000
    V2       V        0.22760    0.55610    0.28080    1.000
    P1       P        0.78510    0.37490    0.07490    1.000
    P2       P        0.16620    0.33250    0.16940    1.000
    O1       O        0.79640    0.42540    0.00060    1.000
    O2       O        0.69220    0.30030    0.07590    1.000
    O3       O        0.15550    0.40270    0.23880    1.000
    O4       O        0.18290    0.42880    0.10980    1.000
    O5       O        0.78890    0.49360    0.12320    1.000
    O6       O        0.24710    0.23350    0.17590    1.000
    O7       O        0.19090    0.65130    0.19050    1.000
    C1       C        0.88060    0.26610    0.10460    1.000
    C2       C        0.05790    0.24650    0.14330    1.000
    C3       C        0.97450    0.33720    0.12090    1.000
    H1       H        0.88640    0.20090    0.06830    1.000
    H2       H        0.86610    0.22110    0.14700    1.000
    H3       H        0.04300    0.19290    0.18260    1.000
    H4       H        0.06680    0.18880    0.10410    1.000
    H5       H        0.98730    0.38540    0.07910    1.000
    H6       H        0.96910    0.39990    0.15850    1.000
    V3       V        0.65540    0.11470    0.08940    1.000
    V4       V        0.72760    0.05610    0.28080    1.000
    P3       P        0.28510    0.87490    0.07490    1.000
    P4       P        0.66620    0.83250    0.16940    1.000
    O8       O        0.29640    0.92540    0.00060    1.000
    O9       O        0.19220    0.80030    0.07590    1.000
    O10      O        0.65550    0.90270    0.23880    1.000
    O11      O        0.68290    0.92880    0.10980    1.000
    O12      O        0.28890    0.99360    0.12320    1.000
    O13      O        0.74710    0.73350    0.17590    1.000
    O14      O        0.69090    0.15130    0.19050    1.000
    C4       C        0.38060    0.76610    0.10460    1.000
    C5       C        0.55790    0.74650    0.14330    1.000
    C6       C        0.47450    0.83720    0.12090    1.000
    H7       H        0.38640    0.70090    0.06830    1.000
    H8       H        0.36610    0.72110    0.14700    1.000
    H9       H        0.54300    0.69290    0.18260    1.000
    H10      H        0.56680    0.68880    0.10410    1.000
    H11      H        0.48730    0.88540    0.07910    1.000
    H12      H        0.46910    0.89990    0.15850    1.000
    V5       V        0.84460    0.61470    0.41060    1.000
    V6       V        0.77240    0.55610    0.21920    1.000
    P5       P        0.21490    0.37490    0.42510    1.000
    P6       P        0.83380    0.33250    0.33060    1.000
    O15      O        0.20360    0.42540    0.49940    1.000
    O16      O        0.30780    0.30030    0.42410    1.000
    O17      O        0.84450    0.40270    0.26120    1.000
    O18      O        0.81710    0.42880    0.39020    1.000
    O19      O        0.21110    0.49360    0.37680    1.000
    O20      O        0.75290    0.23350    0.32410    1.000
    O21      O        0.80910    0.65130    0.30950    1.000
    C7       C        0.11940    0.26610    0.39540    1.000
    C8       C        0.94210    0.24650    0.35670    1.000
    C9       C        0.02550    0.33720    0.37910    1.000
    H13      H        0.11360    0.20090    0.43170    1.000
    H14      H        0.13390    0.22110    0.35300    1.000
    H15      H        0.95700    0.19290    0.31740    1.000
    H16      H        0.93320    0.18880    0.39590    1.000
    H17      H        0.01270    0.38540    0.42090    1.000
    H18      H        0.03090    0.39990    0.34150    1.000
    V7       V        0.34460    0.11470    0.41060    1.000
    V8       V        0.27240    0.05610    0.21920    1.000
    P7       P        0.71490    0.87490    0.42510    1.000
    P8       P        0.33380    0.83250    0.33060    1.000
    O22      O        0.70360    0.92540    0.49940    1.000
    O23      O        0.80780    0.80030    0.42410    1.000
    O24      O        0.34450    0.90270    0.26120    1.000
    O25      O        0.31710    0.92880    0.39020    1.000
    O26      O        0.71110    0.99360    0.37680    1.000
    O27      O        0.25290    0.73350    0.32410    1.000
    O28      O        0.30910    0.15130    0.30950    1.000
    C10      C        0.61940    0.76610    0.39540    1.000
    C11      C        0.44210    0.74650    0.35670    1.000
    C12      C        0.52550    0.83720    0.37910    1.000
    H19      H        0.61360    0.70090    0.43170    1.000
    H20      H        0.63390    0.72110    0.35300    1.000
    H21      H        0.45700    0.69290    0.31740    1.000
    H22      H        0.43320    0.68880    0.39590    1.000
    H23      H        0.51270    0.88540    0.42090    1.000
    H24      H        0.53090    0.89990    0.34150    1.000
    V9       V        0.84460    0.38530    0.91060    1.000
    V10      V        0.77240    0.44390    0.71920    1.000
    P9       P        0.21490    0.62510    0.92510    1.000
    P10      P        0.83380    0.66750    0.83060    1.000
    O29      O        0.20360    0.57460    0.99940    1.000
    O30      O        0.30780    0.69970    0.92410    1.000
    O31      O        0.84450    0.59730    0.76120    1.000
    O32      O        0.81710    0.57120    0.89020    1.000
    O33      O        0.21110    0.50640    0.87680    1.000
    O34      O        0.75290    0.76650    0.82410    1.000
    O35      O        0.80910    0.34870    0.80950    1.000
    C13      C        0.11940    0.73390    0.89540    1.000
    C14      C        0.94210    0.75350    0.85670    1.000
    C15      C        0.02550    0.66280    0.87910    1.000
    H25      H        0.11360    0.79910    0.93170    1.000
    H26      H        0.13390    0.77890    0.85300    1.000
    H27      H        0.95700    0.80710    0.81740    1.000
    H28      H        0.93320    0.81120    0.89590    1.000
    H29      H        0.01270    0.61460    0.92090    1.000
    H30      H        0.03090    0.60010    0.84150    1.000
    V11      V        0.34460    0.88530    0.91060    1.000
    V12      V        0.27240    0.94390    0.71920    1.000
    P11      P        0.71490    0.12510    0.92510    1.000
    P12      P        0.33380    0.16750    0.83060    1.000
    O36      O        0.70360    0.07460    0.99940    1.000
    O37      O        0.80780    0.19970    0.92410    1.000
    O38      O        0.34450    0.09730    0.76120    1.000
    O39      O        0.31710    0.07120    0.89020    1.000
    O40      O        0.71110    0.00640    0.87680    1.000
    O41      O        0.25290    0.26650    0.82410    1.000
    O42      O        0.30910    0.84870    0.80950    1.000
    C16      C        0.61940    0.23390    0.89540    1.000
    C17      C        0.44210    0.25350    0.85670    1.000
    C18      C        0.52550    0.16280    0.87910    1.000
    H31      H        0.61360    0.29910    0.93170    1.000
    H32      H        0.63390    0.27890    0.85300    1.000
    H33      H        0.45700    0.30710    0.81740    1.000
    H34      H        0.43320    0.31120    0.89590    1.000
    H35      H        0.51270    0.11460    0.92090    1.000
    H36      H        0.53090    0.10010    0.84150    1.000
    V13      V        0.15540    0.38530    0.58940    1.000
    V14      V        0.22760    0.44390    0.78080    1.000
    P13      P        0.78510    0.62510    0.57490    1.000
    P14      P        0.16620    0.66750    0.66940    1.000
    O43      O        0.79640    0.57460    0.50060    1.000
    O44      O        0.69220    0.69970    0.57590    1.000
    O45      O        0.15550    0.59730    0.73880    1.000
    O46      O        0.18290    0.57120    0.60980    1.000
    O47      O        0.78890    0.50640    0.62320    1.000
    O48      O        0.24710    0.76650    0.67590    1.000
    O49      O        0.19090    0.34870    0.69050    1.000
    C19      C        0.88060    0.73390    0.60460    1.000
    C20      C        0.05790    0.75350    0.64330    1.000
    C21      C        0.97450    0.66280    0.62090    1.000
    H37      H        0.88640    0.79910    0.56830    1.000
    H38      H        0.86610    0.77890    0.64700    1.000
    H39      H        0.04300    0.80710    0.68260    1.000
    H40      H        0.06680    0.81120    0.60410    1.000
    H41      H        0.98730    0.61460    0.57910    1.000
    H42      H        0.96910    0.60010    0.65850    1.000
    V15      V        0.65540    0.88530    0.58940    1.000
    V16      V        0.72760    0.94390    0.78080    1.000
    P15      P        0.28510    0.12510    0.57490    1.000
    P16      P        0.66620    0.16750    0.66940    1.000
    O50      O        0.29640    0.07460    0.50060    1.000
    O51      O        0.19220    0.19970    0.57590    1.000
    O52      O        0.65550    0.09730    0.73880    1.000
    O53      O        0.68290    0.07120    0.60980    1.000
    O54      O        0.28890    0.00640    0.62320    1.000
    O55      O        0.74710    0.26650    0.67590    1.000
    O56      O        0.69090    0.84870    0.69050    1.000
    C22      C        0.38060    0.23390    0.60460    1.000
    C23      C        0.55790    0.25350    0.64330    1.000
    C24      C        0.47450    0.16280    0.62090    1.000
    H43      H        0.38640    0.29910    0.56830    1.000
    H44      H        0.36610    0.27890    0.64700    1.000
    H45      H        0.54300    0.30710    0.68260    1.000
    H46      H        0.56680    0.31120    0.60410    1.000
    H47      H        0.48730    0.11460    0.57910    1.000
    H48      H        0.46910    0.10010    0.65850    1.000
