# CIF file generated by openbabel 3.1.0, see https://openbabel.org
data_I
_chemical_name_common 'CDLGLU12_clean'
_cell_length_a 7.266
_cell_length_b 10.7768
_cell_length_c 11.5857
_cell_angle_alpha 90
_cell_angle_beta 90
_cell_angle_gamma 90
_space_group_name_H-M_alt 'P 1'
_space_group_name_Hall 'P 1'
loop_
    _symmetry_equiv_pos_as_xyz
    x,y,z
loop_
    _atom_site_label
    _atom_site_type_symbol
    _atom_site_fract_x
    _atom_site_fract_y
    _atom_site_fract_z
    _atom_site_occupancy
    Cd1      Cd       0.11049    0.06645    0.95915    1.000
    Cd2      Cd       0.38951    0.93355    0.45915    1.000
    Cd3      Cd       0.88951    0.56645    0.54085    1.000
    Cd4      Cd       0.61049    0.43355    0.04085    1.000
    H1       H        0.14930    0.27680    0.23330    1.000
    H2       H        0.87110    0.23220    0.31840    1.000
    H3       H        0.00550    0.12120    0.34100    1.000
    H4       H        0.86040    0.00700    0.19480    1.000
    H5       H        0.72600    0.11790    0.17230    1.000
    H6       H        0.30630    0.14700    0.14440    1.000
    H7       H        0.18310    0.05200    0.18880    1.000
    H8       H        0.35070    0.72320    0.73330    1.000
    H9       H        0.62890    0.76780    0.81840    1.000
    H10      H        0.49450    0.87880    0.84100    1.000
    H11      H        0.63960    0.99300    0.69480    1.000
    H12      H        0.77400    0.88210    0.67230    1.000
    H13      H        0.19370    0.85300    0.64440    1.000
    H14      H        0.31690    0.94800    0.68880    1.000
    H15      H        0.85070    0.77680    0.26670    1.000
    H16      H        0.12890    0.73220    0.18160    1.000
    H17      H        0.99450    0.62120    0.15900    1.000
    H18      H        0.13960    0.50700    0.30520    1.000
    H19      H        0.27400    0.61790    0.32770    1.000
    H20      H        0.69370    0.64700    0.35560    1.000
    H21      H        0.81690    0.55200    0.31120    1.000
    H22      H        0.64930    0.22320    0.76670    1.000
    H23      H        0.37110    0.26780    0.68160    1.000
    H24      H        0.50550    0.37880    0.65900    1.000
    H25      H        0.36040    0.49300    0.80520    1.000
    H26      H        0.22600    0.38210    0.82770    1.000
    H27      H        0.80630    0.35300    0.85560    1.000
    H28      H        0.68310    0.44800    0.81120    1.000
    C1       C        0.96300    0.28800    0.09950    1.000
    C2       C        0.07000    0.21710    0.19334    1.000
    C3       C        0.93590    0.16410    0.28170    1.000
    C4       C        0.79560    0.07500    0.23157    1.000
    C5       C        0.66300    0.02240    0.31890    1.000
    C6       C        0.53700    0.71200    0.59950    1.000
    C7       C        0.43000    0.78290    0.69334    1.000
    C8       C        0.56410    0.83590    0.78170    1.000
    C9       C        0.70440    0.92500    0.73157    1.000
    C10      C        0.83700    0.97760    0.81890    1.000
    C11      C        0.03700    0.78800    0.40050    1.000
    C12      C        0.93000    0.71710    0.30666    1.000
    C13      C        0.06410    0.66410    0.21830    1.000
    C14      C        0.20440    0.57500    0.26843    1.000
    C15      C        0.33700    0.52240    0.18110    1.000
    C16      C        0.46300    0.21200    0.90050    1.000
    C17      C        0.57000    0.28290    0.80666    1.000
    C18      C        0.43590    0.33590    0.71830    1.000
    C19      C        0.29560    0.42500    0.76843    1.000
    C20      C        0.16300    0.47760    0.68110    1.000
    N1       N        0.18910    0.11999    0.14387    1.000
    N2       N        0.31090    0.88001    0.64387    1.000
    N3       N        0.81090    0.61999    0.35613    1.000
    N4       N        0.68910    0.38001    0.85613    1.000
    O1       O        0.97130    0.25266    0.99656    1.000
    O2       O        0.86850    0.37727    0.13511    1.000
    O3       O        0.52610    0.96154    0.28100    1.000
    O4       O        0.68420    0.03756    0.42501    1.000
    O5       O        0.52870    0.74734    0.49656    1.000
    O6       O        0.63150    0.62273    0.63511    1.000
    O7       O        0.97390    0.03846    0.78100    1.000
    O8       O        0.81580    0.96244    0.92501    1.000
    O9       O        0.02870    0.75266    0.50344    1.000
    O10      O        0.13150    0.87727    0.36489    1.000
    O11      O        0.47390    0.46154    0.21900    1.000
    O12      O        0.31580    0.53756    0.07499    1.000
    O13      O        0.47130    0.24734    0.00344    1.000
    O14      O        0.36850    0.12273    0.86489    1.000
    O15      O        0.02610    0.53846    0.71900    1.000
    O16      O        0.18420    0.46244    0.57499    1.000
