# CIF file generated by openbabel 3.1.0, see https://openbabel.org
data_I
_chemical_name_common 'image0'
_cell_length_a 12.5451
_cell_length_b 15.8535
_cell_length_c 10.8885
_cell_angle_alpha 90
_cell_angle_beta 90
_cell_angle_gamma 90
_space_group_name_H-M_alt 'P 1'
_space_group_name_Hall 'P 1'
loop_
    _symmetry_equiv_pos_as_xyz
    x,y,z
loop_
    _atom_site_label
    _atom_site_type_symbol
    _atom_site_fract_x
    _atom_site_fract_y
    _atom_site_fract_z
    _atom_site_occupancy
    C1       C        0.34780    0.10820    0.26820    1.000
    C2       C        0.30380    0.14000    0.38910    1.000
    C3       C        0.22990    0.20440    0.38900    1.000
    H1       H        0.20600    0.22660    0.31500    1.000
    O1       O        0.10730    0.36550    0.38830    1.000
    O2       O        0.41300    0.04740    0.27050    1.000
    C4       C        0.65220    0.89180    0.26820    1.000
    C5       C        0.69620    0.86000    0.38910    1.000
    C6       C        0.77010    0.79560    0.38900    1.000
    H2       H        0.79400    0.77340    0.31500    1.000
    O3       O        0.89270    0.63450    0.38830    1.000
    O4       O        0.58700    0.95260    0.27050    1.000
    C7       C        0.84300    0.74700    0.06500    1.000
    C8       C        0.91500    0.68000    0.04900    1.000
    C9       C        0.89400    0.62040    0.95800    1.000
    C10      C        0.79500    0.61980    0.90100    1.000
    C11      C        0.72600    0.68860    0.91200    1.000
    O5       O        0.68260    0.85280    0.82420    1.000
    C12      C        0.15700    0.25300    0.06500    1.000
    C13      C        0.08500    0.32000    0.04900    1.000
    C14      C        0.10600    0.37960    0.95800    1.000
    C15      C        0.20500    0.38020    0.90100    1.000
    C16      C        0.27400    0.31140    0.91200    1.000
    O6       O        0.31740    0.14720    0.82420    1.000
    C17      C        0.65220    0.89180    0.73180    1.000
    C18      C        0.69620    0.86000    0.61090    1.000
    C19      C        0.77010    0.79560    0.61100    1.000
    H3       H        0.79400    0.77340    0.68500    1.000
    O7       O        0.89270    0.63450    0.61170    1.000
    O8       O        0.58700    0.95260    0.72950    1.000
    C20      C        0.34780    0.10820    0.73180    1.000
    C21      C        0.30380    0.14000    0.61090    1.000
    C22      C        0.22990    0.20440    0.61100    1.000
    H4       H        0.20600    0.22660    0.68500    1.000
    O9       O        0.10730    0.36550    0.61170    1.000
    O10      O        0.41300    0.04740    0.72950    1.000
    C23      C        0.15700    0.25300    0.93500    1.000
    C24      C        0.08500    0.32000    0.95100    1.000
    C25      C        0.10600    0.37960    0.04200    1.000
    C26      C        0.20500    0.38020    0.09900    1.000
    C27      C        0.27400    0.31140    0.08800    1.000
    O11      O        0.31740    0.14720    0.17580    1.000
    C28      C        0.84300    0.74700    0.93500    1.000
    C29      C        0.91500    0.68000    0.95100    1.000
    C30      C        0.89400    0.62040    0.04200    1.000
    C31      C        0.79500    0.61980    0.09900    1.000
    C32      C        0.72600    0.68860    0.08800    1.000
    O12      O        0.68260    0.85280    0.17580    1.000
    S1       S        0.09330    0.31740    0.50000    1.000
    C33      C        0.19100    0.23650    0.50000    1.000
    C34      C        0.34060    0.10660    0.50000    1.000
    H5       H        0.38940    0.06250    0.50000    1.000
    O13      O        0.99170    0.27380    0.50000    1.000
    S2       S        0.90670    0.68260    0.50000    1.000
    C35      C        0.80900    0.76350    0.50000    1.000
    C36      C        0.65940    0.89340    0.50000    1.000
    H6       H        0.61060    0.93750    0.50000    1.000
    O14      O        0.00830    0.72620    0.50000    1.000
    N1       N        0.75150    0.75040    0.00000    1.000
    Cu1      Cu       0.66112    0.85388    0.00000    1.000
    O15      O        0.59190    0.96410    0.00000    1.000
    N2       N        0.24850    0.24960    0.00000    1.000
    Cu2      Cu       0.33888    0.14612    0.00000    1.000
    O16      O        0.40810    0.03590    0.00000    1.000
    Cu3      Cu       0.50000    0.00000    0.13916    1.000
    Cu4      Cu       0.50000    0.00000    0.86084    1.000
    C37      C        0.65700    0.24700    0.43500    1.000
    C38      C        0.58500    0.18000    0.45100    1.000
    C39      C        0.60600    0.12040    0.54200    1.000
    C40      C        0.70500    0.11980    0.59900    1.000
    C41      C        0.77400    0.18860    0.58800    1.000
    O17      O        0.81740    0.35280    0.67580    1.000
    C42      C        0.34300    0.75300    0.43500    1.000
    C43      C        0.41500    0.82000    0.45100    1.000
    C44      C        0.39400    0.87960    0.54200    1.000
    C45      C        0.29500    0.88020    0.59900    1.000
    C46      C        0.22600    0.81140    0.58800    1.000
    O18      O        0.18260    0.64720    0.67580    1.000
    C47      C        0.15220    0.60820    0.23180    1.000
    C48      C        0.19620    0.64000    0.11090    1.000
    C49      C        0.27010    0.70440    0.11100    1.000
    H7       H        0.29400    0.72660    0.18500    1.000
    O19      O        0.39270    0.86550    0.11170    1.000
    O20      O        0.08700    0.54740    0.22950    1.000
    C50      C        0.84780    0.39180    0.23180    1.000
    C51      C        0.80380    0.36000    0.11090    1.000
    C52      C        0.72990    0.29560    0.11100    1.000
    H8       H        0.70600    0.27340    0.18500    1.000
    O21      O        0.60730    0.13450    0.11170    1.000
    O22      O        0.91300    0.45260    0.22950    1.000
    C53      C        0.34300    0.75300    0.56500    1.000
    C54      C        0.41500    0.82000    0.54900    1.000
    C55      C        0.39400    0.87960    0.45800    1.000
    C56      C        0.29500    0.88020    0.40100    1.000
    C57      C        0.22600    0.81140    0.41200    1.000
    O23      O        0.18260    0.64720    0.32420    1.000
    C58      C        0.65700    0.24700    0.56500    1.000
    C59      C        0.58500    0.18000    0.54900    1.000
    C60      C        0.60600    0.12040    0.45800    1.000
    C61      C        0.70500    0.11980    0.40100    1.000
    C62      C        0.77400    0.18860    0.41200    1.000
    O24      O        0.81740    0.35280    0.32420    1.000
    C63      C        0.84780    0.39180    0.76820    1.000
    C64      C        0.80380    0.36000    0.88910    1.000
    C65      C        0.72990    0.29560    0.88900    1.000
    H9       H        0.70600    0.27340    0.81500    1.000
    O25      O        0.60730    0.13450    0.88830    1.000
    O26      O        0.91300    0.45260    0.77050    1.000
    C66      C        0.15220    0.60820    0.76820    1.000
    C67      C        0.19620    0.64000    0.88910    1.000
    C68      C        0.27010    0.70440    0.88900    1.000
    H10      H        0.29400    0.72660    0.81500    1.000
    O27      O        0.39270    0.86550    0.88830    1.000
    O28      O        0.08700    0.54740    0.77050    1.000
    N3       N        0.74850    0.25040    0.50000    1.000
    Cu5      Cu       0.83888    0.35388    0.50000    1.000
    O29      O        0.90810    0.46410    0.50000    1.000
    N4       N        0.25150    0.74960    0.50000    1.000
    Cu6      Cu       0.16112    0.64612    0.50000    1.000
    O30      O        0.09190    0.53590    0.50000    1.000
    S3       S        0.40670    0.81740    0.00000    1.000
    C69      C        0.30900    0.73650    0.00000    1.000
    C70      C        0.15940    0.60660    0.00000    1.000
    H11      H        0.11060    0.56250    0.00000    1.000
    O31      O        0.50830    0.77380    0.00000    1.000
    S4       S        0.59330    0.18260    0.00000    1.000
    C71      C        0.69100    0.26350    0.00000    1.000
    C72      C        0.84060    0.39340    0.00000    1.000
    H12      H        0.88940    0.43750    0.00000    1.000
    O32      O        0.49170    0.22620    0.00000    1.000
    Cu7      Cu       0.00000    0.50000    0.36084    1.000
    Cu8      Cu       0.00000    0.50000    0.63916    1.000
