# CIF file generated by openbabel 3.1.0, see https://openbabel.org
data_I
_chemical_name_common 'ja4012707_si_005'
_cell_length_a 12.4815
_cell_length_b 12.4815
_cell_length_c 12.4815
_cell_angle_alpha 90
_cell_angle_beta 90
_cell_angle_gamma 90
_space_group_name_H-M_alt 'P 1'
_space_group_name_Hall 'P 1'
loop_
    _symmetry_equiv_pos_as_xyz
    x,y,z
loop_
    _atom_site_label
    _atom_site_type_symbol
    _atom_site_fract_x
    _atom_site_fract_y
    _atom_site_fract_z
    _atom_site_occupancy
    C1       C        0.04880    0.34090    0.06810    1.000
    N2       N        0.07420    0.25940    0.08820    1.000
    C3       C        0.45120    0.65910    0.56810    1.000
    N4       N        0.42580    0.74060    0.58820    1.000
    C5       C        0.95120    0.84090    0.43190    1.000
    N6       N        0.92580    0.75940    0.41180    1.000
    C7       C        0.54880    0.15910    0.93190    1.000
    N8       N        0.57420    0.24060    0.91180    1.000
    C9       C        0.06810    0.04880    0.34090    1.000
    N10      N        0.08820    0.07420    0.25940    1.000
    C11      C        0.56810    0.45120    0.65910    1.000
    N12      N        0.58820    0.42580    0.74060    1.000
    C13      C        0.43190    0.95120    0.84090    1.000
    N14      N        0.41180    0.92580    0.75940    1.000
    C15      C        0.93190    0.54880    0.15910    1.000
    N16      N        0.91180    0.57420    0.24060    1.000
    C17      C        0.34090    0.06810    0.04880    1.000
    N18      N        0.25940    0.08820    0.07420    1.000
    C19      C        0.65910    0.56810    0.45120    1.000
    N20      N        0.74060    0.58820    0.42580    1.000
    C21      C        0.84090    0.43190    0.95120    1.000
    N22      N        0.75940    0.41180    0.92580    1.000
    C23      C        0.15910    0.93190    0.54880    1.000
    N24      N        0.24060    0.91180    0.57420    1.000
    C25      C        0.95120    0.65910    0.93190    1.000
    N26      N        0.92580    0.74060    0.91180    1.000
    C27      C        0.54880    0.34090    0.43190    1.000
    N28      N        0.57420    0.25940    0.41180    1.000
    C29      C        0.04880    0.15910    0.56810    1.000
    N30      N        0.07420    0.24060    0.58820    1.000
    C31      C        0.45120    0.84090    0.06810    1.000
    N32      N        0.42580    0.75940    0.08820    1.000
    C33      C        0.93190    0.95120    0.65910    1.000
    N34      N        0.91180    0.92580    0.74060    1.000
    C35      C        0.43190    0.54880    0.34090    1.000
    N36      N        0.41180    0.57420    0.25940    1.000
    C37      C        0.56810    0.04880    0.15910    1.000
    N38      N        0.58820    0.07420    0.24060    1.000
    C39      C        0.06810    0.45120    0.84090    1.000
    N40      N        0.08820    0.42580    0.75940    1.000
    C41      C        0.65910    0.93190    0.95120    1.000
    N42      N        0.74060    0.91180    0.92580    1.000
    C43      C        0.34090    0.43190    0.54880    1.000
    N44      N        0.25940    0.41180    0.57420    1.000
    C45      C        0.15910    0.56810    0.04880    1.000
    N46      N        0.24060    0.58820    0.07420    1.000
    C47      C        0.84090    0.06810    0.45120    1.000
    N48      N        0.75940    0.08820    0.42580    1.000
    C49      C        0.02620    0.02620    0.02620    1.000
    Zn50     Zn       0.10819    0.10819    0.10819    1.000
    C51      C        0.47380    0.97380    0.52620    1.000
    Zn52     Zn       0.39181    0.89181    0.60819    1.000
    C53      C        0.97380    0.52620    0.47380    1.000
    Zn54     Zn       0.89181    0.60819    0.39181    1.000
    C55      C        0.52620    0.47380    0.97380    1.000
    Zn56     Zn       0.60819    0.39181    0.89181    1.000
    C57      C        0.97380    0.97380    0.97380    1.000
    Zn58     Zn       0.89181    0.89181    0.89181    1.000
    C59      C        0.52620    0.02620    0.47380    1.000
    Zn60     Zn       0.60819    0.10819    0.39181    1.000
    C61      C        0.02620    0.47380    0.52620    1.000
    Zn62     Zn       0.10819    0.39181    0.60819    1.000
    C63      C        0.47380    0.52620    0.02620    1.000
    Zn64     Zn       0.39181    0.60819    0.10819    1.000
    Zn65     Zn       0.50000    0.50000    0.50000    1.000
    Zn66     Zn       0.00000    0.50000    0.00000    1.000
    Zn67     Zn       0.50000    0.00000    0.00000    1.000
    Zn68     Zn       0.00000    0.00000    0.50000    1.000
