# CIF file generated by openbabel 3.1.0, see https://openbabel.org
data_I
_chemical_name_common 'image0'
_cell_length_a 25.5147
_cell_length_b 25.5147
_cell_length_c 14.5426
_cell_angle_alpha 90
_cell_angle_beta 90
_cell_angle_gamma 90
_space_group_name_H-M_alt 'P 1'
_space_group_name_Hall 'P 1'
loop_
    _symmetry_equiv_pos_as_xyz
    x,y,z
loop_
    _atom_site_label
    _atom_site_type_symbol
    _atom_site_fract_x
    _atom_site_fract_y
    _atom_site_fract_z
    _atom_site_occupancy
    Co1      Co       0.49964    0.31661    0.16363    1.000
    O1       O        0.55830    0.36450    0.10410    1.000
    O2       O        0.56510    0.34310    0.25090    1.000
    O3       O        0.77520    0.46600    0.01250    1.000
    O4       O        0.69600    0.45530    0.94800    1.000
    C1       C        0.63790    0.38580    0.18120    1.000
    C2       C        0.75620    0.40110    0.33500    1.000
    C3       C        0.65630    0.40800    0.10220    1.000
    H1       H        0.63420    0.41050    0.04970    1.000
    C4       C        0.70840    0.42720    0.09860    1.000
    C5       C        0.73920    0.42450    0.17870    1.000
    H2       H        0.77380    0.43820    0.17820    1.000
    C6       C        0.72000    0.40260    0.25710    1.000
    C7       C        0.66930    0.38360    0.25860    1.000
    H3       H        0.65580    0.36870    0.31370    1.000
    C8       C        0.58470    0.36380    0.17960    1.000
    C9       C        0.72930    0.45200    0.01380    1.000
    O5       O        0.81060    0.41010    0.30690    1.000
    N1       N        0.45210    0.38290    0.19480    1.000
    C10      C        0.41950    0.38050    0.27130    1.000
    H4       H        0.42400    0.35340    0.31530    1.000
    C11      C        0.38040    0.41780    0.28330    1.000
    H5       H        0.35820    0.41620    0.33550    1.000
    C12      C        0.37400    0.45750    0.21900    1.000
    H6       H        0.34720    0.48300    0.22700    1.000
    C13      C        0.40660    0.45990    0.14230    1.000
    H7       H        0.40210    0.48700    0.09830    1.000
    C14      C        0.44570    0.42260    0.13030    1.000
    H8       H        0.46790    0.42420    0.07810    1.000
    C15      C        0.58820    0.25800    0.08410    1.000
    C16      C        0.60240    0.27400    0.98590    1.000
    C17      C        0.62940    0.26300    0.02920    1.000
    Co2      Co       0.99964    0.81661    0.66363    1.000
    O6       O        0.05830    0.86450    0.60410    1.000
    O7       O        0.06510    0.84310    0.75090    1.000
    O8       O        0.27520    0.96600    0.51250    1.000
    O9       O        0.19600    0.95530    0.44800    1.000
    C18      C        0.13790    0.88580    0.68120    1.000
    C19      C        0.25620    0.90110    0.83500    1.000
    C20      C        0.15630    0.90800    0.60220    1.000
    H9       H        0.13420    0.91050    0.54970    1.000
    C21      C        0.20840    0.92720    0.59860    1.000
    C22      C        0.23920    0.92450    0.67870    1.000
    H10      H        0.27380    0.93820    0.67820    1.000
    C23      C        0.22000    0.90260    0.75710    1.000
    C24      C        0.16930    0.88360    0.75860    1.000
    H11      H        0.15580    0.86870    0.81370    1.000
    C25      C        0.08470    0.86380    0.67960    1.000
    C26      C        0.22930    0.95200    0.51380    1.000
    O10      O        0.31060    0.91010    0.80690    1.000
    N2       N        0.95210    0.88290    0.69480    1.000
    C27      C        0.91950    0.88050    0.77130    1.000
    H12      H        0.92400    0.85340    0.81530    1.000
    C28      C        0.88040    0.91780    0.78330    1.000
    H13      H        0.85820    0.91620    0.83550    1.000
    C29      C        0.87400    0.95750    0.71900    1.000
    H14      H        0.84720    0.98300    0.72700    1.000
    C30      C        0.90660    0.95990    0.64230    1.000
    H15      H        0.90210    0.98700    0.59830    1.000
    C31      C        0.94570    0.92260    0.63030    1.000
    H16      H        0.96790    0.92420    0.57810    1.000
    C32      C        0.08820    0.75800    0.58410    1.000
    C33      C        0.10240    0.77400    0.48590    1.000
    C34      C        0.12940    0.76300    0.52920    1.000
    Co3      Co       0.50036    0.68339    0.16363    1.000
    O11      O        0.44170    0.63550    0.10410    1.000
    O12      O        0.43490    0.65690    0.25090    1.000
    O13      O        0.22480    0.53400    0.01250    1.000
    O14      O        0.30400    0.54470    0.94800    1.000
    C35      C        0.36210    0.61420    0.18120    1.000
    C36      C        0.24380    0.59890    0.33500    1.000
    C37      C        0.34370    0.59200    0.10220    1.000
    H17      H        0.36580    0.58950    0.04970    1.000
    C38      C        0.29160    0.57280    0.09860    1.000
    C39      C        0.26080    0.57550    0.17870    1.000
    H18      H        0.22620    0.56180    0.17820    1.000
    C40      C        0.28000    0.59740    0.25710    1.000
    C41      C        0.33070    0.61640    0.25860    1.000
    H19      H        0.34420    0.63130    0.31370    1.000
    C42      C        0.41530    0.63620    0.17960    1.000
    C43      C        0.27070    0.54800    0.01380    1.000
    O15      O        0.18940    0.58990    0.30690    1.000
    N3       N        0.54790    0.61710    0.19480    1.000
    C44      C        0.58050    0.61950    0.27130    1.000
    H20      H        0.57600    0.64660    0.31530    1.000
    C45      C        0.61960    0.58220    0.28330    1.000
    H21      H        0.64180    0.58380    0.33550    1.000
    C46      C        0.62600    0.54250    0.21900    1.000
    H22      H        0.65280    0.51700    0.22700    1.000
    C47      C        0.59340    0.54010    0.14230    1.000
    H23      H        0.59790    0.51300    0.09830    1.000
    C48      C        0.55430    0.57740    0.13030    1.000
    H24      H        0.53210    0.57580    0.07810    1.000
    C49      C        0.41180    0.74200    0.08410    1.000
    C50      C        0.39760    0.72600    0.98590    1.000
    C51      C        0.37060    0.73700    0.02920    1.000
    Co4      Co       0.00036    0.18339    0.66363    1.000
    O16      O        0.94170    0.13550    0.60410    1.000
    O17      O        0.93490    0.15690    0.75090    1.000
    O18      O        0.72480    0.03400    0.51250    1.000
    O19      O        0.80400    0.04470    0.44800    1.000
    C52      C        0.86210    0.11420    0.68120    1.000
    C53      C        0.74380    0.09890    0.83500    1.000
    C54      C        0.84370    0.09200    0.60220    1.000
    H25      H        0.86580    0.08950    0.54970    1.000
    C55      C        0.79160    0.07280    0.59860    1.000
    C56      C        0.76080    0.07550    0.67870    1.000
    H26      H        0.72620    0.06180    0.67820    1.000
    C57      C        0.78000    0.09740    0.75710    1.000
    C58      C        0.83070    0.11640    0.75860    1.000
    H27      H        0.84420    0.13130    0.81370    1.000
    C59      C        0.91530    0.13620    0.67960    1.000
    C60      C        0.77070    0.04800    0.51380    1.000
    O20      O        0.68940    0.08990    0.80690    1.000
    N4       N        0.04790    0.11710    0.69480    1.000
    C61      C        0.08050    0.11950    0.77130    1.000
    H28      H        0.07600    0.14660    0.81530    1.000
    C62      C        0.11960    0.08220    0.78330    1.000
    H29      H        0.14180    0.08380    0.83550    1.000
    C63      C        0.12600    0.04250    0.71900    1.000
    H30      H        0.15280    0.01700    0.72700    1.000
    C64      C        0.09340    0.04010    0.64230    1.000
    H31      H        0.09790    0.01300    0.59830    1.000
    C65      C        0.05430    0.07740    0.63030    1.000
    H32      H        0.03210    0.07580    0.57810    1.000
    C66      C        0.91180    0.24200    0.58410    1.000
    C67      C        0.89760    0.22600    0.48590    1.000
    C68      C        0.87060    0.23700    0.52920    1.000
    Co5      Co       0.31661    0.50036    0.83637    1.000
    O21      O        0.36450    0.44170    0.89590    1.000
    O22      O        0.34310    0.43490    0.74910    1.000
    O23      O        0.46600    0.22480    0.98750    1.000
    O24      O        0.45530    0.30400    0.05200    1.000
    C69      C        0.38580    0.36210    0.81880    1.000
    C70      C        0.40110    0.24380    0.66500    1.000
    C71      C        0.40800    0.34370    0.89780    1.000
    H33      H        0.41050    0.36580    0.95030    1.000
    C72      C        0.42720    0.29160    0.90140    1.000
    C73      C        0.42450    0.26080    0.82130    1.000
    H34      H        0.43820    0.22620    0.82180    1.000
    C74      C        0.40260    0.28000    0.74290    1.000
    C75      C        0.38360    0.33070    0.74140    1.000
    H35      H        0.36870    0.34420    0.68630    1.000
    C76      C        0.36380    0.41530    0.82040    1.000
    C77      C        0.45200    0.27070    0.98620    1.000
    O25      O        0.41010    0.18940    0.69310    1.000
    N5       N        0.38290    0.54790    0.80520    1.000
    C78      C        0.38050    0.58050    0.72870    1.000
    H36      H        0.35340    0.57600    0.68470    1.000
    C79      C        0.41780    0.61960    0.71670    1.000
    H37      H        0.41620    0.64180    0.66450    1.000
    C80      C        0.45750    0.62600    0.78100    1.000
    H38      H        0.48300    0.65280    0.77300    1.000
    C81      C        0.45990    0.59340    0.85770    1.000
    H39      H        0.48700    0.59790    0.90170    1.000
    C82      C        0.42260    0.55430    0.86970    1.000
    H40      H        0.42420    0.53210    0.92190    1.000
    C83      C        0.25800    0.41180    0.91590    1.000
    C84      C        0.27400    0.39760    0.01410    1.000
    C85      C        0.26300    0.37060    0.97080    1.000
    Co6      Co       0.81661    0.00036    0.33637    1.000
    O26      O        0.86450    0.94170    0.39590    1.000
    O27      O        0.84310    0.93490    0.24910    1.000
    O28      O        0.96600    0.72480    0.48750    1.000
    O29      O        0.95530    0.80400    0.55200    1.000
    C86      C        0.88580    0.86210    0.31880    1.000
    C87      C        0.90110    0.74380    0.16500    1.000
    C88      C        0.90800    0.84370    0.39780    1.000
    H41      H        0.91050    0.86580    0.45030    1.000
    C89      C        0.92720    0.79160    0.40140    1.000
    C90      C        0.92450    0.76080    0.32130    1.000
    H42      H        0.93820    0.72620    0.32180    1.000
    C91      C        0.90260    0.78000    0.24290    1.000
    C92      C        0.88360    0.83070    0.24140    1.000
    H43      H        0.86870    0.84420    0.18630    1.000
    C93      C        0.86380    0.91530    0.32040    1.000
    C94      C        0.95200    0.77070    0.48620    1.000
    O30      O        0.91010    0.68940    0.19310    1.000
    N6       N        0.88290    0.04790    0.30520    1.000
    C95      C        0.88050    0.08050    0.22870    1.000
    H44      H        0.85340    0.07600    0.18470    1.000
    C96      C        0.91780    0.11960    0.21670    1.000
    H45      H        0.91620    0.14180    0.16450    1.000
    C97      C        0.95750    0.12600    0.28100    1.000
    H46      H        0.98300    0.15280    0.27300    1.000
    C98      C        0.95990    0.09340    0.35770    1.000
    H47      H        0.98700    0.09790    0.40170    1.000
    C99      C        0.92260    0.05430    0.36970    1.000
    H48      H        0.92420    0.03210    0.42190    1.000
    C100     C        0.75800    0.91180    0.41590    1.000
    C101     C        0.77400    0.89760    0.51410    1.000
    C102     C        0.76300    0.87060    0.47080    1.000
    Co7      Co       0.68339    0.49964    0.83637    1.000
    O31      O        0.63550    0.55830    0.89590    1.000
    O32      O        0.65690    0.56510    0.74910    1.000
    O33      O        0.53400    0.77520    0.98750    1.000
    O34      O        0.54470    0.69600    0.05200    1.000
    C103     C        0.61420    0.63790    0.81880    1.000
    C104     C        0.59890    0.75620    0.66500    1.000
    C105     C        0.59200    0.65630    0.89780    1.000
    H49      H        0.58950    0.63420    0.95030    1.000
    C106     C        0.57280    0.70840    0.90140    1.000
    C107     C        0.57550    0.73920    0.82130    1.000
    H50      H        0.56180    0.77380    0.82180    1.000
    C108     C        0.59740    0.72000    0.74290    1.000
    C109     C        0.61640    0.66930    0.74140    1.000
    H51      H        0.63130    0.65580    0.68630    1.000
    C110     C        0.63620    0.58470    0.82040    1.000
    C111     C        0.54800    0.72930    0.98620    1.000
    O35      O        0.58990    0.81060    0.69310    1.000
    N7       N        0.61710    0.45210    0.80520    1.000
    C112     C        0.61950    0.41950    0.72870    1.000
    H52      H        0.64660    0.42400    0.68470    1.000
    C113     C        0.58220    0.38040    0.71670    1.000
    H53      H        0.58380    0.35820    0.66450    1.000
    C114     C        0.54250    0.37400    0.78100    1.000
    H54      H        0.51700    0.34720    0.77300    1.000
    C115     C        0.54010    0.40660    0.85770    1.000
    H55      H        0.51300    0.40210    0.90170    1.000
    C116     C        0.57740    0.44570    0.86970    1.000
    H56      H        0.57580    0.46790    0.92190    1.000
    C117     C        0.74200    0.58820    0.91590    1.000
    C118     C        0.72600    0.60240    0.01410    1.000
    C119     C        0.73700    0.62940    0.97080    1.000
    Co8      Co       0.18339    0.99964    0.33637    1.000
    O36      O        0.13550    0.05830    0.39590    1.000
    O37      O        0.15690    0.06510    0.24910    1.000
    O38      O        0.03400    0.27520    0.48750    1.000
    O39      O        0.04470    0.19600    0.55200    1.000
    C120     C        0.11420    0.13790    0.31880    1.000
    C121     C        0.09890    0.25620    0.16500    1.000
    C122     C        0.09200    0.15630    0.39780    1.000
    H57      H        0.08950    0.13420    0.45030    1.000
    C123     C        0.07280    0.20840    0.40140    1.000
    C124     C        0.07550    0.23920    0.32130    1.000
    H58      H        0.06180    0.27380    0.32180    1.000
    C125     C        0.09740    0.22000    0.24290    1.000
    C126     C        0.11640    0.16930    0.24140    1.000
    H59      H        0.13130    0.15580    0.18630    1.000
    C127     C        0.13620    0.08470    0.32040    1.000
    C128     C        0.04800    0.22930    0.48620    1.000
    O40      O        0.08990    0.31060    0.19310    1.000
    N8       N        0.11710    0.95210    0.30520    1.000
    C129     C        0.11950    0.91950    0.22870    1.000
    H60      H        0.14660    0.92400    0.18470    1.000
    C130     C        0.08220    0.88040    0.21670    1.000
    H61      H        0.08380    0.85820    0.16450    1.000
    C131     C        0.04250    0.87400    0.28100    1.000
    H62      H        0.01700    0.84720    0.27300    1.000
    C132     C        0.04010    0.90660    0.35770    1.000
    H63      H        0.01300    0.90210    0.40170    1.000
    C133     C        0.07740    0.94570    0.36970    1.000
    H64      H        0.07580    0.96790    0.42190    1.000
    C134     C        0.24200    0.08820    0.41590    1.000
    C135     C        0.22600    0.10240    0.51410    1.000
    C136     C        0.23700    0.12940    0.47080    1.000
    Co9      Co       0.00036    0.31661    0.58637    1.000
    O41      O        0.94170    0.36450    0.64590    1.000
    O42      O        0.93490    0.34310    0.49910    1.000
    O43      O        0.72480    0.46600    0.73750    1.000
    O44      O        0.80400    0.45530    0.80200    1.000
    C137     C        0.86210    0.38580    0.56880    1.000
    C138     C        0.74380    0.40110    0.41500    1.000
    C139     C        0.84370    0.40800    0.64780    1.000
    H65      H        0.86580    0.41050    0.70030    1.000
    C140     C        0.79160    0.42720    0.65140    1.000
    C141     C        0.76080    0.42450    0.57130    1.000
    H66      H        0.72620    0.43820    0.57180    1.000
    C142     C        0.78000    0.40260    0.49290    1.000
    C143     C        0.83070    0.38360    0.49140    1.000
    H67      H        0.84420    0.36870    0.43630    1.000
    C144     C        0.91530    0.36380    0.57040    1.000
    C145     C        0.77070    0.45200    0.73620    1.000
    O45      O        0.68940    0.41010    0.44310    1.000
    N9       N        0.04790    0.38290    0.55520    1.000
    C146     C        0.08050    0.38050    0.47870    1.000
    H68      H        0.07600    0.35340    0.43470    1.000
    C147     C        0.11960    0.41780    0.46670    1.000
    H69      H        0.14180    0.41620    0.41450    1.000
    C148     C        0.12600    0.45750    0.53100    1.000
    H70      H        0.15280    0.48300    0.52300    1.000
    C149     C        0.09340    0.45990    0.60770    1.000
    H71      H        0.09790    0.48700    0.65170    1.000
    C150     C        0.05430    0.42260    0.61970    1.000
    H72      H        0.03210    0.42420    0.67190    1.000
    C151     C        0.91180    0.25800    0.66590    1.000
    C152     C        0.89760    0.27400    0.76410    1.000
    C153     C        0.87060    0.26300    0.72080    1.000
    Co10     Co       0.50036    0.81661    0.08637    1.000
    O46      O        0.44170    0.86450    0.14590    1.000
    O47      O        0.43490    0.84310    0.99910    1.000
    O48      O        0.22480    0.96600    0.23750    1.000
    O49      O        0.30400    0.95530    0.30200    1.000
    C154     C        0.36210    0.88580    0.06880    1.000
    C155     C        0.24380    0.90110    0.91500    1.000
    C156     C        0.34370    0.90800    0.14780    1.000
    H73      H        0.36580    0.91050    0.20030    1.000
    C157     C        0.29160    0.92720    0.15140    1.000
    C158     C        0.26080    0.92450    0.07130    1.000
    H74      H        0.22620    0.93820    0.07180    1.000
    C159     C        0.28000    0.90260    0.99290    1.000
    C160     C        0.33070    0.88360    0.99140    1.000
    H75      H        0.34420    0.86870    0.93630    1.000
    C161     C        0.41530    0.86380    0.07040    1.000
    C162     C        0.27070    0.95200    0.23620    1.000
    O50      O        0.18940    0.91010    0.94310    1.000
    N10      N        0.54790    0.88290    0.05520    1.000
    C163     C        0.58050    0.88050    0.97870    1.000
    H76      H        0.57600    0.85340    0.93470    1.000
    C164     C        0.61960    0.91780    0.96670    1.000
    H77      H        0.64180    0.91620    0.91450    1.000
    C165     C        0.62600    0.95750    0.03100    1.000
    H78      H        0.65280    0.98300    0.02300    1.000
    C166     C        0.59340    0.95990    0.10770    1.000
    H79      H        0.59790    0.98700    0.15170    1.000
    C167     C        0.55430    0.92260    0.11970    1.000
    H80      H        0.53210    0.92420    0.17190    1.000
    C168     C        0.41180    0.75800    0.16590    1.000
    C169     C        0.39760    0.77400    0.26410    1.000
    C170     C        0.37060    0.76300    0.22080    1.000
    Co11     Co       0.99964    0.68339    0.58637    1.000
    O51      O        0.05830    0.63550    0.64590    1.000
    O52      O        0.06510    0.65690    0.49910    1.000
    O53      O        0.27520    0.53400    0.73750    1.000
    O54      O        0.19600    0.54470    0.80200    1.000
    C171     C        0.13790    0.61420    0.56880    1.000
    C172     C        0.25620    0.59890    0.41500    1.000
    C173     C        0.15630    0.59200    0.64780    1.000
    H81      H        0.13420    0.58950    0.70030    1.000
    C174     C        0.20840    0.57280    0.65140    1.000
    C175     C        0.23920    0.57550    0.57130    1.000
    H82      H        0.27380    0.56180    0.57180    1.000
    C176     C        0.22000    0.59740    0.49290    1.000
    C177     C        0.16930    0.61640    0.49140    1.000
    H83      H        0.15580    0.63130    0.43630    1.000
    C178     C        0.08470    0.63620    0.57040    1.000
    C179     C        0.22930    0.54800    0.73620    1.000
    O55      O        0.31060    0.58990    0.44310    1.000
    N11      N        0.95210    0.61710    0.55520    1.000
    C180     C        0.91950    0.61950    0.47870    1.000
    H84      H        0.92400    0.64660    0.43470    1.000
    C181     C        0.88040    0.58220    0.46670    1.000
    H85      H        0.85820    0.58380    0.41450    1.000
    C182     C        0.87400    0.54250    0.53100    1.000
    H86      H        0.84720    0.51700    0.52300    1.000
    C183     C        0.90660    0.54010    0.60770    1.000
    H87      H        0.90210    0.51300    0.65170    1.000
    C184     C        0.94570    0.57740    0.61970    1.000
    H88      H        0.96790    0.57580    0.67190    1.000
    C185     C        0.08820    0.74200    0.66590    1.000
    C186     C        0.10240    0.72600    0.76410    1.000
    C187     C        0.12940    0.73700    0.72080    1.000
    Co12     Co       0.49964    0.18339    0.08637    1.000
    O56      O        0.55830    0.13550    0.14590    1.000
    O57      O        0.56510    0.15690    0.99910    1.000
    O58      O        0.77520    0.03400    0.23750    1.000
    O59      O        0.69600    0.04470    0.30200    1.000
    C188     C        0.63790    0.11420    0.06880    1.000
    C189     C        0.75620    0.09890    0.91500    1.000
    C190     C        0.65630    0.09200    0.14780    1.000
    H89      H        0.63420    0.08950    0.20030    1.000
    C191     C        0.70840    0.07280    0.15140    1.000
    C192     C        0.73920    0.07550    0.07130    1.000
    H90      H        0.77380    0.06180    0.07180    1.000
    C193     C        0.72000    0.09740    0.99290    1.000
    C194     C        0.66930    0.11640    0.99140    1.000
    H91      H        0.65580    0.13130    0.93630    1.000
    C195     C        0.58470    0.13620    0.07040    1.000
    C196     C        0.72930    0.04800    0.23620    1.000
    O60      O        0.81060    0.08990    0.94310    1.000
    N12      N        0.45210    0.11710    0.05520    1.000
    C197     C        0.41950    0.11950    0.97870    1.000
    H92      H        0.42400    0.14660    0.93470    1.000
    C198     C        0.38040    0.08220    0.96670    1.000
    H93      H        0.35820    0.08380    0.91450    1.000
    C199     C        0.37400    0.04250    0.03100    1.000
    H94      H        0.34720    0.01700    0.02300    1.000
    C200     C        0.40660    0.04010    0.10770    1.000
    H95      H        0.40210    0.01300    0.15170    1.000
    C201     C        0.44570    0.07740    0.11970    1.000
    H96      H        0.46790    0.07580    0.17190    1.000
    C202     C        0.58820    0.24200    0.16590    1.000
    C203     C        0.60240    0.22600    0.26410    1.000
    C204     C        0.62940    0.23700    0.22080    1.000
    Co13     Co       0.18339    0.50036    0.91363    1.000
    O61      O        0.13550    0.44170    0.85410    1.000
    O62      O        0.15690    0.43490    0.00090    1.000
    O63      O        0.03400    0.22480    0.76250    1.000
    O64      O        0.04470    0.30400    0.69800    1.000
    C205     C        0.11420    0.36210    0.93120    1.000
    C206     C        0.09890    0.24380    0.08500    1.000
    C207     C        0.09200    0.34370    0.85220    1.000
    H97      H        0.08950    0.36580    0.79970    1.000
    C208     C        0.07280    0.29160    0.84860    1.000
    C209     C        0.07550    0.26080    0.92870    1.000
    H98      H        0.06180    0.22620    0.92820    1.000
    C210     C        0.09740    0.28000    0.00710    1.000
    C211     C        0.11640    0.33070    0.00860    1.000
    H99      H        0.13130    0.34420    0.06370    1.000
    C212     C        0.13620    0.41530    0.92960    1.000
    C213     C        0.04800    0.27070    0.76380    1.000
    O65      O        0.08990    0.18940    0.05690    1.000
    N13      N        0.11710    0.54790    0.94480    1.000
    C214     C        0.11950    0.58050    0.02130    1.000
    H100     H        0.14660    0.57600    0.06530    1.000
    C215     C        0.08220    0.61960    0.03330    1.000
    H101     H        0.08380    0.64180    0.08550    1.000
    C216     C        0.04250    0.62600    0.96900    1.000
    H102     H        0.01700    0.65280    0.97700    1.000
    C217     C        0.04010    0.59340    0.89230    1.000
    H103     H        0.01300    0.59790    0.84830    1.000
    C218     C        0.07740    0.55430    0.88030    1.000
    H104     H        0.07580    0.53210    0.82810    1.000
    C219     C        0.24200    0.41180    0.83410    1.000
    C220     C        0.22600    0.39760    0.73590    1.000
    C221     C        0.23700    0.37060    0.77920    1.000
    Co14     Co       0.68339    0.00036    0.41363    1.000
    O66      O        0.63550    0.94170    0.35410    1.000
    O67      O        0.65690    0.93490    0.50090    1.000
    O68      O        0.53400    0.72480    0.26250    1.000
    O69      O        0.54470    0.80400    0.19800    1.000
    C222     C        0.61420    0.86210    0.43120    1.000
    C223     C        0.59890    0.74380    0.58500    1.000
    C224     C        0.59200    0.84370    0.35220    1.000
    H105     H        0.58950    0.86580    0.29970    1.000
    C225     C        0.57280    0.79160    0.34860    1.000
    C226     C        0.57550    0.76080    0.42870    1.000
    H106     H        0.56180    0.72620    0.42820    1.000
    C227     C        0.59740    0.78000    0.50710    1.000
    C228     C        0.61640    0.83070    0.50860    1.000
    H107     H        0.63130    0.84420    0.56370    1.000
    C229     C        0.63620    0.91530    0.42960    1.000
    C230     C        0.54800    0.77070    0.26380    1.000
    O70      O        0.58990    0.68940    0.55690    1.000
    N14      N        0.61710    0.04790    0.44480    1.000
    C231     C        0.61950    0.08050    0.52130    1.000
    H108     H        0.64660    0.07600    0.56530    1.000
    C232     C        0.58220    0.11960    0.53330    1.000
    H109     H        0.58380    0.14180    0.58550    1.000
    C233     C        0.54250    0.12600    0.46900    1.000
    H110     H        0.51700    0.15280    0.47700    1.000
    C234     C        0.54010    0.09340    0.39230    1.000
    H111     H        0.51300    0.09790    0.34830    1.000
    C235     C        0.57740    0.05430    0.38030    1.000
    H112     H        0.57580    0.03210    0.32810    1.000
    C236     C        0.74200    0.91180    0.33410    1.000
    C237     C        0.72600    0.89760    0.23590    1.000
    C238     C        0.73700    0.87060    0.27920    1.000
    Co15     Co       0.81661    0.49964    0.91363    1.000
    O71      O        0.86450    0.55830    0.85410    1.000
    O72      O        0.84310    0.56510    0.00090    1.000
    O73      O        0.96600    0.77520    0.76250    1.000
    O74      O        0.95530    0.69600    0.69800    1.000
    C239     C        0.88580    0.63790    0.93120    1.000
    C240     C        0.90110    0.75620    0.08500    1.000
    C241     C        0.90800    0.65630    0.85220    1.000
    H113     H        0.91050    0.63420    0.79970    1.000
    C242     C        0.92720    0.70840    0.84860    1.000
    C243     C        0.92450    0.73920    0.92870    1.000
    H114     H        0.93820    0.77380    0.92820    1.000
    C244     C        0.90260    0.72000    0.00710    1.000
    C245     C        0.88360    0.66930    0.00860    1.000
    H115     H        0.86870    0.65580    0.06370    1.000
    C246     C        0.86380    0.58470    0.92960    1.000
    C247     C        0.95200    0.72930    0.76380    1.000
    O75      O        0.91010    0.81060    0.05690    1.000
    N15      N        0.88290    0.45210    0.94480    1.000
    C248     C        0.88050    0.41950    0.02130    1.000
    H116     H        0.85340    0.42400    0.06530    1.000
    C249     C        0.91780    0.38040    0.03330    1.000
    H117     H        0.91620    0.35820    0.08550    1.000
    C250     C        0.95750    0.37400    0.96900    1.000
    H118     H        0.98300    0.34720    0.97700    1.000
    C251     C        0.95990    0.40660    0.89230    1.000
    H119     H        0.98700    0.40210    0.84830    1.000
    C252     C        0.92260    0.44570    0.88030    1.000
    H120     H        0.92420    0.46790    0.82810    1.000
    C253     C        0.75800    0.58820    0.83410    1.000
    C254     C        0.77400    0.60240    0.73590    1.000
    C255     C        0.76300    0.62940    0.77920    1.000
    Co16     Co       0.31661    0.99964    0.41363    1.000
    O76      O        0.36450    0.05830    0.35410    1.000
    O77      O        0.34310    0.06510    0.50090    1.000
    O78      O        0.46600    0.27520    0.26250    1.000
    O79      O        0.45530    0.19600    0.19800    1.000
    C256     C        0.38580    0.13790    0.43120    1.000
    C257     C        0.40110    0.25620    0.58500    1.000
    C258     C        0.40800    0.15630    0.35220    1.000
    H121     H        0.41050    0.13420    0.29970    1.000
    C259     C        0.42720    0.20840    0.34860    1.000
    C260     C        0.42450    0.23920    0.42870    1.000
    H122     H        0.43820    0.27380    0.42820    1.000
    C261     C        0.40260    0.22000    0.50710    1.000
    C262     C        0.38360    0.16930    0.50860    1.000
    H123     H        0.36870    0.15580    0.56370    1.000
    C263     C        0.36380    0.08470    0.42960    1.000
    C264     C        0.45200    0.22930    0.26380    1.000
    O80      O        0.41010    0.31060    0.55690    1.000
    N16      N        0.38290    0.95210    0.44480    1.000
    C265     C        0.38050    0.91950    0.52130    1.000
    H124     H        0.35340    0.92400    0.56530    1.000
    C266     C        0.41780    0.88040    0.53330    1.000
    H125     H        0.41620    0.85820    0.58550    1.000
    C267     C        0.45750    0.87400    0.46900    1.000
    H126     H        0.48300    0.84720    0.47700    1.000
    C268     C        0.45990    0.90660    0.39230    1.000
    H127     H        0.48700    0.90210    0.34830    1.000
    C269     C        0.42260    0.94570    0.38030    1.000
    H128     H        0.42420    0.96790    0.32810    1.000
    C270     C        0.25800    0.08820    0.33410    1.000
    C271     C        0.27400    0.10240    0.23590    1.000
    C272     C        0.26300    0.12940    0.27920    1.000
    O81      O        0.54820    0.25000    0.12500    1.000
    N17      N        0.63760    0.25000    0.12500    1.000
    C273     C        0.69380    0.25000    0.12500    1.000
    O82      O        0.45180    0.75000    0.12500    1.000
    N18      N        0.36240    0.75000    0.12500    1.000
    C274     C        0.30620    0.75000    0.12500    1.000
    O83      O        0.25000    0.45180    0.87500    1.000
    N19      N        0.25000    0.36240    0.87500    1.000
    C275     C        0.25000    0.30620    0.87500    1.000
    O84      O        0.75000    0.95180    0.37500    1.000
    N20      N        0.75000    0.86240    0.37500    1.000
    C276     C        0.75000    0.80620    0.37500    1.000
    O85      O        0.75000    0.54820    0.87500    1.000
    N21      N        0.75000    0.63760    0.87500    1.000
    C277     C        0.75000    0.69380    0.87500    1.000
    O86      O        0.25000    0.04820    0.37500    1.000
    N22      N        0.25000    0.13760    0.37500    1.000
    C278     C        0.25000    0.19380    0.37500    1.000
    O87      O        0.95180    0.25000    0.62500    1.000
    N23      N        0.86240    0.25000    0.62500    1.000
    C279     C        0.80620    0.25000    0.62500    1.000
    O88      O        0.04820    0.75000    0.62500    1.000
    N24      N        0.13760    0.75000    0.62500    1.000
    C280     C        0.19380    0.75000    0.62500    1.000
