# CIF file generated by openbabel 3.1.0, see https://openbabel.org
data_I
_chemical_name_common 'LUMDEC_clean'
_cell_length_a 17.4682
_cell_length_b 17.4682
_cell_length_c 17.4682
_cell_angle_alpha 97.4701
_cell_angle_beta 115.785
_cell_angle_gamma 115.785
_space_group_name_H-M_alt 'P 1'
_space_group_name_Hall 'P 1'
loop_
    _symmetry_equiv_pos_as_xyz
    x,y,z
loop_
    _atom_site_label
    _atom_site_type_symbol
    _atom_site_fract_x
    _atom_site_fract_y
    _atom_site_fract_z
    _atom_site_occupancy
    Cd1      Cd       0.45521    0.04939    0.16342    1.000
    Cd2      Cd       0.95521    0.79179    0.40582    1.000
    H1       H        0.64900    0.03410    0.32510    1.000
    H2       H        0.45300    0.88480    0.06520    1.000
    H3       H        0.75520    0.94740    0.36840    1.000
    H4       H        0.69430    0.82080    0.20970    1.000
    H5       H        0.59400    0.28410    0.28450    1.000
    H6       H        0.61460    0.16050    0.10070    1.000
    H7       H        0.70840    0.46220    0.30980    1.000
    H8       H        0.81400    0.48660    0.22720    1.000
    H9       H        0.56010    0.82890    0.12240    1.000
    H10      H        0.71500    0.32190    0.14210    1.000
    H11      H        0.14900    0.82390    0.61490    1.000
    H12      H        0.95300    0.88780    0.56820    1.000
    H13      H        0.25520    0.88680    0.80780    1.000
    H14      H        0.19430    0.98460    0.87350    1.000
    H15      H        0.09400    0.80950    0.30990    1.000
    H16      H        0.11460    0.01390    0.45410    1.000
    H17      H        0.20840    0.89860    0.24620    1.000
    H18      H        0.31400    0.08680    0.32740    1.000
    H19      H        0.06010    0.93770    0.73120    1.000
    H20      H        0.21500    0.07290    0.39310    1.000
    C1       C        0.63280    0.92480    0.24720    1.000
    C2       C        0.61260    0.98780    0.26720    1.000
    C3       C        0.50630    0.90780    0.12630    1.000
    C4       C        0.71480    0.91260    0.30500    1.000
    C5       C        0.73490    0.85600    0.27290    1.000
    C6       C        0.81730    0.84540    0.33110    1.000
    C7       C        0.67260    0.34160    0.22940    1.000
    C8       C        0.61200    0.27440    0.24300    1.000
    C9       C        0.62270    0.20610    0.14320    1.000
    C10      C        0.72610    0.44070    0.27280    1.000
    C11      C        0.79700    0.50490    0.26650    1.000
    C12      C        0.85080    0.60560    0.32040    1.000
    C13      C        0.13280    0.88560    0.70800    1.000
    C14      C        0.11260    0.84540    0.62480    1.000
    C15      C        0.00630    0.88000    0.59850    1.000
    C16      C        0.21480    0.90980    0.80220    1.000
    C17      C        0.23490    0.96200    0.87890    1.000
    C18      C        0.31730    0.98620    0.97190    1.000
    C19      C        0.17260    0.94320    0.33100    1.000
    C20      C        0.11200    0.86900    0.33760    1.000
    C21      C        0.12270    0.97950    0.41660    1.000
    C22      C        0.22610    0.95330    0.28540    1.000
    C23      C        0.29700    0.03050    0.29210    1.000
    C24      C        0.35080    0.03040    0.24520    1.000
    N1       N        0.56500    0.87390    0.15550    1.000
    N2       N        0.53110    0.97350    0.19000    1.000
    N3       N        0.68010    0.29660    0.16450    1.000
    N4       N        0.57950    0.18960    0.18890    1.000
    N5       N        0.06500    0.90950    0.69110    1.000
    N6       N        0.03110    0.84110    0.55760    1.000
    N7       N        0.18010    0.01560    0.38350    1.000
    N8       N        0.07950    0.89060    0.38990    1.000
    O1       O        0.92940    0.66040    0.32240    1.000
    O2       O        0.82060    0.63280    0.36440    1.000
    O3       O        0.83220    0.79480    0.28920    1.000
    O4       O        0.86910    0.88240    0.41590    1.000
    O5       O        0.42940    0.10700    0.26900    1.000
    O6       O        0.32060    0.95620    0.18780    1.000
    O7       O        0.33220    0.04300    0.03740    1.000
    O8       O        0.36910    0.95320    0.98670    1.000
    Cd3      Cd       0.04479    0.20821    0.59418    1.000
    Cd4      Cd       0.54479    0.95061    0.83658    1.000
    H21      H        0.85100    0.17610    0.38510    1.000
    H22      H        0.04700    0.11220    0.43180    1.000
    H23      H        0.74480    0.11320    0.19220    1.000
    H24      H        0.80570    0.01540    0.12650    1.000
    H25      H        0.90600    0.19050    0.69010    1.000
    H26      H        0.88540    0.98610    0.54590    1.000
    H27      H        0.79160    0.10140    0.75380    1.000
    H28      H        0.68600    0.91320    0.67260    1.000
    H29      H        0.93990    0.06230    0.26880    1.000
    H30      H        0.78500    0.92710    0.60690    1.000
    H31      H        0.35100    0.96590    0.67490    1.000
    H32      H        0.54700    0.11520    0.93480    1.000
    H33      H        0.24480    0.05260    0.63160    1.000
    H34      H        0.30570    0.17920    0.79030    1.000
    H35      H        0.40600    0.71590    0.71550    1.000
    H36      H        0.38540    0.83950    0.89930    1.000
    H37      H        0.29160    0.53780    0.69020    1.000
    H38      H        0.18600    0.51340    0.77280    1.000
    H39      H        0.43990    0.17110    0.87760    1.000
    H40      H        0.28500    0.67810    0.85790    1.000
    C25      C        0.86720    0.11440    0.29200    1.000
    C26      C        0.88740    0.15460    0.37520    1.000
    C27      C        0.99370    0.12000    0.40150    1.000
    C28      C        0.78520    0.09020    0.19780    1.000
    C29      C        0.76510    0.03800    0.12110    1.000
    C30      C        0.68270    0.01380    0.02810    1.000
    C31      C        0.82740    0.05680    0.66900    1.000
    C32      C        0.88800    0.13100    0.66240    1.000
    C33      C        0.87730    0.02050    0.58340    1.000
    C34      C        0.77390    0.04670    0.71460    1.000
    C35      C        0.70300    0.96950    0.70790    1.000
    C36      C        0.64920    0.96960    0.75480    1.000
    C37      C        0.36720    0.07520    0.75280    1.000
    C38      C        0.38740    0.01220    0.73280    1.000
    C39      C        0.49370    0.09220    0.87370    1.000
    C40      C        0.28520    0.08740    0.69500    1.000
    C41      C        0.26510    0.14400    0.72710    1.000
    C42      C        0.18270    0.15460    0.66890    1.000
    C43      C        0.32740    0.65840    0.77060    1.000
    C44      C        0.38800    0.72560    0.75700    1.000
    C45      C        0.37730    0.79390    0.85680    1.000
    C46      C        0.27390    0.55930    0.72720    1.000
    C47      C        0.20300    0.49510    0.73350    1.000
    C48      C        0.14920    0.39440    0.67960    1.000
    N9       N        0.93500    0.09050    0.30890    1.000
    N10      N        0.96890    0.15890    0.44240    1.000
    N11      N        0.81990    0.98440    0.61650    1.000
    N12      N        0.92050    0.10940    0.61010    1.000
    N13      N        0.43500    0.12610    0.84450    1.000
    N14      N        0.46890    0.02650    0.81000    1.000
    N15      N        0.31990    0.70340    0.83550    1.000
    N16      N        0.42050    0.81040    0.81110    1.000
    O9       O        0.57060    0.89300    0.73100    1.000
    O10      O        0.67940    0.04380    0.81220    1.000
    O11      O        0.66780    0.95700    0.96260    1.000
    O12      O        0.63090    0.04680    0.01330    1.000
    O13      O        0.07060    0.33960    0.67760    1.000
    O14      O        0.17940    0.36720    0.63560    1.000
    O15      O        0.16780    0.20520    0.71080    1.000
    O16      O        0.13090    0.11760    0.58410    1.000
    Cd5      Cd       0.11403    0.16342    0.20821    1.000
    Cd6      Cd       0.61403    0.40582    0.95061    1.000
    H41      H        0.29100    0.32510    0.17610    1.000
    H42      H        0.18040    0.06520    0.11220    1.000
    H43      H        0.42100    0.36840    0.11320    1.000
    H44      H        0.38890    0.20970    0.01540    1.000
    H45      H        0.00040    0.28450    0.19050    1.000
    H46      H        0.94020    0.10070    0.98610    1.000
    H47      H        0.84760    0.30980    0.10140    1.000
    H48      H        0.74060    0.22720    0.91320    1.000
    H49      H        0.29350    0.12240    0.06230    1.000
    H50      H        0.82020    0.14210    0.92710    1.000
    H51      H        0.79100    0.61490    0.96590    1.000
    H52      H        0.68040    0.56820    0.11520    1.000
    H53      H        0.92100    0.80780    0.05260    1.000
    H54      H        0.88890    0.87350    0.17920    1.000
    H55      H        0.50040    0.30990    0.71590    1.000
    H56      H        0.44020    0.45410    0.83950    1.000
    H57      H        0.34760    0.24620    0.53780    1.000
    H58      H        0.24060    0.32740    0.51340    1.000
    H59      H        0.79350    0.73120    0.17110    1.000
    H60      H        0.32020    0.39310    0.67810    1.000
    C49      C        0.32240    0.24720    0.11440    1.000
    C50      C        0.27940    0.26720    0.15460    1.000
    C51      C        0.21850    0.12630    0.12000    1.000
    C52      C        0.39240    0.30500    0.09020    1.000
    C53      C        0.41690    0.27290    0.03800    1.000
    C54      C        0.48570    0.33110    0.01380    1.000
    C55      C        0.88780    0.22940    0.05680    1.000
    C56      C        0.96860    0.24300    0.13100    1.000
    C57      C        0.93710    0.14320    0.02050    1.000
    C58      C        0.83210    0.27280    0.04670    1.000
    C59      C        0.76160    0.26650    0.96950    1.000
    C60      C        0.71480    0.32040    0.96960    1.000
    C61      C        0.82240    0.70800    0.07520    1.000
    C62      C        0.77940    0.62480    0.01220    1.000
    C63      C        0.71850    0.59850    0.09220    1.000
    C64      C        0.89240    0.80220    0.08740    1.000
    C65      C        0.91690    0.87890    0.14400    1.000
    C66      C        0.98570    0.97190    0.15460    1.000
    C67      C        0.38780    0.33100    0.65840    1.000
    C68      C        0.46860    0.33760    0.72560    1.000
    C69      C        0.43710    0.41660    0.79390    1.000
    C70      C        0.33210    0.28540    0.55930    1.000
    C71      C        0.26160    0.29210    0.49510    1.000
    C72      C        0.21480    0.24520    0.39440    1.000
    N17      N        0.28160    0.15550    0.09050    1.000
    N18      N        0.21650    0.19000    0.15890    1.000
    N19      N        0.86790    0.16450    0.98440    1.000
    N20      N        0.99930    0.18890    0.10940    1.000
    N21      N        0.78160    0.69110    0.12610    1.000
    N22      N        0.71650    0.55760    0.02650    1.000
    N23      N        0.36790    0.38350    0.70340    1.000
    N24      N        0.49930    0.38990    0.81040    1.000
    O17      O        0.66200    0.32240    0.89300    1.000
    O18      O        0.73160    0.36440    0.04380    1.000
    O19      O        0.49440    0.28920    0.95700    1.000
    O20      O        0.53350    0.41590    0.04680    1.000
    O21      O        0.16200    0.26900    0.33960    1.000
    O22      O        0.23160    0.18780    0.36720    1.000
    O23      O        0.99440    0.03740    0.20520    1.000
    O24      O        0.03350    0.98670    0.11760    1.000
    Cd7      Cd       0.38597    0.59418    0.04939    1.000
    Cd8      Cd       0.88597    0.83658    0.79179    1.000
    H61      H        0.20900    0.38510    0.03410    1.000
    H62      H        0.31960    0.43180    0.88480    1.000
    H63      H        0.07900    0.19220    0.94740    1.000
    H64      H        0.11110    0.12650    0.82080    1.000
    H65      H        0.49960    0.69010    0.28410    1.000
    H66      H        0.55980    0.54590    0.16050    1.000
    H67      H        0.65240    0.75380    0.46220    1.000
    H68      H        0.75940    0.67260    0.48660    1.000
    H69      H        0.20650    0.26880    0.82890    1.000
    H70      H        0.67980    0.60690    0.32190    1.000
    H71      H        0.70900    0.67490    0.82390    1.000
    H72      H        0.81960    0.93480    0.88780    1.000
    H73      H        0.57900    0.63160    0.88680    1.000
    H74      H        0.61110    0.79030    0.98460    1.000
    H75      H        0.99960    0.71550    0.80950    1.000
    H76      H        0.05980    0.89930    0.01390    1.000
    H77      H        0.15240    0.69020    0.89860    1.000
    H78      H        0.25940    0.77280    0.08680    1.000
    H79      H        0.70650    0.87760    0.93770    1.000
    H80      H        0.17980    0.85790    0.07290    1.000
    C73      C        0.17760    0.29200    0.92480    1.000
    C74      C        0.22060    0.37520    0.98780    1.000
    C75      C        0.28150    0.40150    0.90780    1.000
    C76      C        0.10760    0.19780    0.91260    1.000
    C77      C        0.08310    0.12110    0.85600    1.000
    C78      C        0.01430    0.02810    0.84540    1.000
    C79      C        0.61220    0.66900    0.34160    1.000
    C80      C        0.53140    0.66240    0.27440    1.000
    C81      C        0.56290    0.58340    0.20610    1.000
    C82      C        0.66790    0.71460    0.44070    1.000
    C83      C        0.73840    0.70790    0.50490    1.000
    C84      C        0.78520    0.75480    0.60560    1.000
    C85      C        0.67760    0.75280    0.88560    1.000
    C86      C        0.72060    0.73280    0.84540    1.000
    C87      C        0.78150    0.87370    0.88000    1.000
    C88      C        0.60760    0.69500    0.90980    1.000
    C89      C        0.58310    0.72710    0.96200    1.000
    C90      C        0.51430    0.66890    0.98620    1.000
    C91      C        0.11220    0.77060    0.94320    1.000
    C92      C        0.03140    0.75700    0.86900    1.000
    C93      C        0.06290    0.85680    0.97950    1.000
    C94      C        0.16790    0.72720    0.95330    1.000
    C95      C        0.23840    0.73350    0.03050    1.000
    C96      C        0.28520    0.67960    0.03040    1.000
    N25      N        0.21840    0.30890    0.87390    1.000
    N26      N        0.28350    0.44240    0.97350    1.000
    N27      N        0.63210    0.61650    0.29660    1.000
    N28      N        0.50070    0.61010    0.18960    1.000
    N29      N        0.71840    0.84450    0.90950    1.000
    N30      N        0.78350    0.81000    0.84110    1.000
    N31      N        0.13210    0.83550    0.01560    1.000
    N32      N        0.00070    0.81110    0.89060    1.000
    O25      O        0.83800    0.73100    0.66040    1.000
    O26      O        0.76840    0.81220    0.63280    1.000
    O27      O        0.00560    0.96260    0.79480    1.000
    O28      O        0.96650    0.01330    0.88240    1.000
    O29      O        0.33800    0.67760    0.10700    1.000
    O30      O        0.26840    0.63560    0.95620    1.000
    O31      O        0.50560    0.71080    0.04300    1.000
    O32      O        0.46650    0.58410    0.95320    1.000
