# CIF file generated by openbabel 3.1.0, see https://openbabel.org
data_I
_chemical_name_common 'image0'
_cell_length_a 24
_cell_length_b 15.522
_cell_length_c 16.523
_cell_angle_alpha 90
_cell_angle_beta 133.517
_cell_angle_gamma 90
_space_group_name_H-M_alt 'P 1'
_space_group_name_Hall 'P 1'
loop_
    _symmetry_equiv_pos_as_xyz
    x,y,z
loop_
    _atom_site_label
    _atom_site_type_symbol
    _atom_site_fract_x
    _atom_site_fract_y
    _atom_site_fract_z
    _atom_site_occupancy
    Co1      Co       0.74090    0.99134    0.00112    1.000
    Co2      Co       0.82874    0.49898    0.58671    1.000
    N1       N        0.71290    0.92000    0.86760    1.000
    N2       N        0.75560    0.59920    0.56580    1.000
    N3       N        0.63480    0.76960    0.59740    1.000
    H1       H        0.58420    0.77300    0.54600    1.000
    N4       N        0.67030    0.09690    0.89350    1.000
    N5       N        0.34010    0.44070    0.55620    1.000
    N6       N        0.54250    0.30950    0.69010    1.000
    H2       H        0.55600    0.33500    0.65700    1.000
    N7       N        0.81370    0.89250    0.12310    1.000
    N8       N        0.86580    0.58180    0.52760    1.000
    N9       N        0.94020    0.73600    0.40780    1.000
    H3       H        0.99030    0.73700    0.45000    1.000
    N10      N        0.90040    0.39640    0.61530    1.000
    N11      N        0.23240    0.06400    0.93610    1.000
    N12      N        0.03120    0.18660    0.65910    1.000
    H4       H        0.00400    0.16100    0.59300    1.000
    C1       C        0.75830    0.86090    0.87900    1.000
    H5       H        0.80760    0.85410    0.94910    1.000
    C2       C        0.73660    0.80890    0.79260    1.000
    H6       H        0.77020    0.76800    0.80510    1.000
    C3       C        0.66350    0.81940    0.68710    1.000
    C4       C        0.61630    0.88310    0.67400    1.000
    H7       H        0.56760    0.89350    0.60430    1.000
    C5       C        0.64260    0.92960    0.76510    1.000
    H8       H        0.60990    0.97020    0.75530    1.000
    C6       C        0.78710    0.67320    0.62310    1.000
    H9       H        0.83670    0.68600    0.65580    1.000
    C7       C        0.75070    0.73130    0.63650    1.000
    H10      H        0.77550    0.78130    0.67790    1.000
    C8       C        0.67530    0.71340    0.58620    1.000
    C9       C        0.63970    0.63980    0.52160    1.000
    H11      H        0.58910    0.62710    0.48430    1.000
    C10      C        0.68180    0.58630    0.51460    1.000
    H12      H        0.65750    0.53710    0.47090    1.000
    C11      C        0.68800    0.14360    0.84550    1.000
    H13      H        0.73060    0.12730    0.85780    1.000
    C12      C        0.64670    0.21390    0.77930    1.000
    H14      H        0.66150    0.24460    0.74830    1.000
    C13      C        0.58190    0.23890    0.75890    1.000
    C14      C        0.56250    0.19110    0.80720    1.000
    H15      H        0.51990    0.20550    0.79580    1.000
    C15      C        0.60800    0.12130    0.87260    1.000
    H16      H        0.59440    0.08920    0.90430    1.000
    C16      C        0.37380    0.38480    0.64050    1.000
    H17      H        0.35030    0.37540    0.66680    1.000
    C17      C        0.44140    0.33960    0.69200    1.000
    H18      H        0.46330    0.30380    0.75270    1.000
    C18      C        0.47560    0.34960    0.64920    1.000
    C19      C        0.44170    0.40850    0.56270    1.000
    H19      H        0.46340    0.41930    0.53390    1.000
    C20      C        0.37550    0.45060    0.51990    1.000
    H20      H        0.35370    0.48880    0.46140    1.000
    C21      C        0.88930    0.90180    0.20920    1.000
    H21      H        0.91440    0.94440    0.20480    1.000
    C22      C        0.93270    0.85150    0.30470    1.000
    H22      H        0.98530    0.86060    0.36250    1.000
    C23      C        0.89620    0.78680    0.31290    1.000
    C24      C        0.81810    0.77410    0.22190    1.000
    H23      H        0.79200    0.73060    0.22300    1.000
    C25      C        0.78020    0.82640    0.13060    1.000
    H24      H        0.72820    0.81610    0.06970    1.000
    C26      C        0.82280    0.64790    0.45800    1.000
    H25      H        0.77570    0.65790    0.43580    1.000
    C27      C        0.84480    0.70120    0.41820    1.000
    H26      H        0.81390    0.74760    0.37300    1.000
    C28      C        0.91370    0.68610    0.44530    1.000
    C29      C        0.96110    0.62060    0.52290    1.000
    H27      H        0.00920    0.61020    0.54860    1.000
    C30      C        0.93470    0.57200    0.56000    1.000
    H28      H        0.96680    0.52890    0.61170    1.000
    C31      C        0.95380    0.35900    0.71420    1.000
    H29      H        0.96140    0.38070    0.77370    1.000
    C32      C        0.99850    0.29050    0.73500    1.000
    H30      H        0.03390    0.26650    0.80610    1.000
    C33      C        0.99080    0.25750    0.65050    1.000
    C34      C        0.93450    0.29520    0.54500    1.000
    H31      H        0.92570    0.27430    0.48430    1.000
    C35      C        0.89270    0.36270    0.53210    1.000
    H32      H        0.85650    0.38740    0.46160    1.000
    C36      C        0.21650    0.14560    0.94290    1.000
    H33      H        0.25210    0.17360    0.01130    1.000
    C37      C        0.15160    0.19030    0.85640    1.000
    H34      H        0.14360    0.24640    0.86620    1.000
    C38      C        0.09890    0.14990    0.75450    1.000
    C39      C        0.11670    0.06680    0.74460    1.000
    H35      H        0.08360    0.03830    0.67640    1.000
    C40      C        0.18260    0.02840    0.83530    1.000
    H36      H        0.19360    0.97370    0.82640    1.000
    Co3      Co       0.24090    0.50866    0.50112    1.000
    Co4      Co       0.32874    0.00102    0.08671    1.000
    N13      N        0.21290    0.58000    0.36760    1.000
    N14      N        0.25560    0.90080    0.06580    1.000
    N15      N        0.13480    0.73040    0.09740    1.000
    H37      H        0.08420    0.72700    0.04600    1.000
    N16      N        0.17030    0.40310    0.39350    1.000
    N17      N        0.84010    0.05930    0.05620    1.000
    N18      N        0.04250    0.19050    0.19010    1.000
    H38      H        0.05600    0.16500    0.15700    1.000
    N19      N        0.31370    0.60750    0.62310    1.000
    N20      N        0.36580    0.91820    0.02760    1.000
    N21      N        0.44020    0.76400    0.90780    1.000
    H39      H        0.49030    0.76300    0.95000    1.000
    N22      N        0.40040    0.10360    0.11530    1.000
    N23      N        0.73240    0.43600    0.43610    1.000
    N24      N        0.53120    0.31340    0.15910    1.000
    H40      H        0.50400    0.33900    0.09300    1.000
    C41      C        0.25830    0.63910    0.37900    1.000
    H41      H        0.30760    0.64590    0.44910    1.000
    C42      C        0.23660    0.69110    0.29260    1.000
    H42      H        0.27020    0.73200    0.30510    1.000
    C43      C        0.16350    0.68060    0.18710    1.000
    C44      C        0.11630    0.61690    0.17400    1.000
    H43      H        0.06760    0.60650    0.10430    1.000
    C45      C        0.14260    0.57040    0.26510    1.000
    H44      H        0.10990    0.52980    0.25530    1.000
    C46      C        0.28710    0.82680    0.12310    1.000
    H45      H        0.33670    0.81400    0.15580    1.000
    C47      C        0.25070    0.76870    0.13650    1.000
    H46      H        0.27550    0.71870    0.17790    1.000
    C48      C        0.17530    0.78660    0.08620    1.000
    C49      C        0.13970    0.86020    0.02160    1.000
    H47      H        0.08910    0.87290    0.98430    1.000
    C50      C        0.18180    0.91370    0.01460    1.000
    H48      H        0.15750    0.96290    0.97090    1.000
    C51      C        0.18800    0.35640    0.34550    1.000
    H49      H        0.23060    0.37270    0.35780    1.000
    C52      C        0.14670    0.28610    0.27930    1.000
    H50      H        0.16150    0.25540    0.24830    1.000
    C53      C        0.08190    0.26110    0.25890    1.000
    C54      C        0.06250    0.30890    0.30720    1.000
    H51      H        0.01990    0.29450    0.29580    1.000
    C55      C        0.10800    0.37870    0.37260    1.000
    H52      H        0.09440    0.41080    0.40430    1.000
    C56      C        0.87380    0.11520    0.14050    1.000
    H53      H        0.85030    0.12460    0.16680    1.000
    C57      C        0.94140    0.16040    0.19200    1.000
    H54      H        0.96330    0.19620    0.25270    1.000
    C58      C        0.97560    0.15040    0.14920    1.000
    C59      C        0.94170    0.09150    0.06270    1.000
    H55      H        0.96340    0.08070    0.03390    1.000
    C60      C        0.87550    0.04940    0.01990    1.000
    H56      H        0.85370    0.01120    0.96140    1.000
    C61      C        0.38930    0.59820    0.70920    1.000
    H57      H        0.41440    0.55560    0.70480    1.000
    C62      C        0.43270    0.64850    0.80470    1.000
    H58      H        0.48530    0.63940    0.86250    1.000
    C63      C        0.39620    0.71320    0.81290    1.000
    C64      C        0.31810    0.72590    0.72190    1.000
    H59      H        0.29200    0.76940    0.72300    1.000
    C65      C        0.28020    0.67360    0.63060    1.000
    H60      H        0.22820    0.68390    0.56970    1.000
    C66      C        0.32280    0.85210    0.95800    1.000
    H61      H        0.27570    0.84210    0.93580    1.000
    C67      C        0.34480    0.79880    0.91820    1.000
    H62      H        0.31390    0.75240    0.87300    1.000
    C68      C        0.41370    0.81390    0.94530    1.000
    C69      C        0.46110    0.87940    0.02290    1.000
    H63      H        0.50920    0.88980    0.04860    1.000
    C70      C        0.43470    0.92800    0.06000    1.000
    H64      H        0.46680    0.97110    0.11170    1.000
    C71      C        0.45380    0.14100    0.21420    1.000
    H65      H        0.46140    0.11930    0.27370    1.000
    C72      C        0.49850    0.20950    0.23500    1.000
    H66      H        0.53390    0.23350    0.30610    1.000
    C73      C        0.49080    0.24250    0.15050    1.000
    C74      C        0.43450    0.20480    0.04500    1.000
    H67      H        0.42570    0.22570    0.98430    1.000
    C75      C        0.39270    0.13730    0.03210    1.000
    H68      H        0.35650    0.11260    0.96160    1.000
    C76      C        0.71650    0.35440    0.44290    1.000
    H69      H        0.75210    0.32640    0.51130    1.000
    C77      C        0.65160    0.30970    0.35640    1.000
    H70      H        0.64360    0.25360    0.36620    1.000
    C78      C        0.59890    0.35010    0.25450    1.000
    C79      C        0.61670    0.43320    0.24460    1.000
    H71      H        0.58360    0.46170    0.17640    1.000
    C80      C        0.68260    0.47160    0.33530    1.000
    H72      H        0.69360    0.52630    0.32640    1.000
    Co5      Co       0.24090    0.49134    0.00112    1.000
    Co6      Co       0.32874    0.99898    0.58671    1.000
    N25      N        0.21290    0.42000    0.86760    1.000
    N26      N        0.25560    0.09920    0.56580    1.000
    N27      N        0.13480    0.26960    0.59740    1.000
    H73      H        0.08420    0.27300    0.54600    1.000
    N28      N        0.17030    0.59690    0.89350    1.000
    N29      N        0.84010    0.94070    0.55620    1.000
    N30      N        0.04250    0.80950    0.69010    1.000
    H74      H        0.05600    0.83500    0.65700    1.000
    N31      N        0.31370    0.39250    0.12310    1.000
    N32      N        0.36580    0.08180    0.52760    1.000
    N33      N        0.44020    0.23600    0.40780    1.000
    H75      H        0.49030    0.23700    0.45000    1.000
    N34      N        0.40040    0.89640    0.61530    1.000
    N35      N        0.73240    0.56400    0.93610    1.000
    N36      N        0.53120    0.68660    0.65910    1.000
    H76      H        0.50400    0.66100    0.59300    1.000
    C81      C        0.25830    0.36090    0.87900    1.000
    H77      H        0.30760    0.35410    0.94910    1.000
    C82      C        0.23660    0.30890    0.79260    1.000
    H78      H        0.27020    0.26800    0.80510    1.000
    C83      C        0.16350    0.31940    0.68710    1.000
    C84      C        0.11630    0.38310    0.67400    1.000
    H79      H        0.06760    0.39350    0.60430    1.000
    C85      C        0.14260    0.42960    0.76510    1.000
    H80      H        0.10990    0.47020    0.75530    1.000
    C86      C        0.28710    0.17320    0.62310    1.000
    H81      H        0.33670    0.18600    0.65580    1.000
    C87      C        0.25070    0.23130    0.63650    1.000
    H82      H        0.27550    0.28130    0.67790    1.000
    C88      C        0.17530    0.21340    0.58620    1.000
    C89      C        0.13970    0.13980    0.52160    1.000
    H83      H        0.08910    0.12710    0.48430    1.000
    C90      C        0.18180    0.08630    0.51460    1.000
    H84      H        0.15750    0.03710    0.47090    1.000
    C91      C        0.18800    0.64360    0.84550    1.000
    H85      H        0.23060    0.62730    0.85780    1.000
    C92      C        0.14670    0.71390    0.77930    1.000
    H86      H        0.16150    0.74460    0.74830    1.000
    C93      C        0.08190    0.73890    0.75890    1.000
    C94      C        0.06250    0.69110    0.80720    1.000
    H87      H        0.01990    0.70550    0.79580    1.000
    C95      C        0.10800    0.62130    0.87260    1.000
    H88      H        0.09440    0.58920    0.90430    1.000
    C96      C        0.87380    0.88480    0.64050    1.000
    H89      H        0.85030    0.87540    0.66680    1.000
    C97      C        0.94140    0.83960    0.69200    1.000
    H90      H        0.96330    0.80380    0.75270    1.000
    C98      C        0.97560    0.84960    0.64920    1.000
    C99      C        0.94170    0.90850    0.56270    1.000
    H91      H        0.96340    0.91930    0.53390    1.000
    C100     C        0.87550    0.95060    0.51990    1.000
    H92      H        0.85370    0.98880    0.46140    1.000
    C101     C        0.38930    0.40180    0.20920    1.000
    H93      H        0.41440    0.44440    0.20480    1.000
    C102     C        0.43270    0.35150    0.30470    1.000
    H94      H        0.48530    0.36060    0.36250    1.000
    C103     C        0.39620    0.28680    0.31290    1.000
    C104     C        0.31810    0.27410    0.22190    1.000
    H95      H        0.29200    0.23060    0.22300    1.000
    C105     C        0.28020    0.32640    0.13060    1.000
    H96      H        0.22820    0.31610    0.06970    1.000
    C106     C        0.32280    0.14790    0.45800    1.000
    H97      H        0.27570    0.15790    0.43580    1.000
    C107     C        0.34480    0.20120    0.41820    1.000
    H98      H        0.31390    0.24760    0.37300    1.000
    C108     C        0.41370    0.18610    0.44530    1.000
    C109     C        0.46110    0.12060    0.52290    1.000
    H99      H        0.50920    0.11020    0.54860    1.000
    C110     C        0.43470    0.07200    0.56000    1.000
    H100     H        0.46680    0.02890    0.61170    1.000
    C111     C        0.45380    0.85900    0.71420    1.000
    H101     H        0.46140    0.88070    0.77370    1.000
    C112     C        0.49850    0.79050    0.73500    1.000
    H102     H        0.53390    0.76650    0.80610    1.000
    C113     C        0.49080    0.75750    0.65050    1.000
    C114     C        0.43450    0.79520    0.54500    1.000
    H103     H        0.42570    0.77430    0.48430    1.000
    C115     C        0.39270    0.86270    0.53210    1.000
    H104     H        0.35650    0.88740    0.46160    1.000
    C116     C        0.71650    0.64560    0.94290    1.000
    H105     H        0.75210    0.67360    0.01130    1.000
    C117     C        0.65160    0.69030    0.85640    1.000
    H106     H        0.64360    0.74640    0.86620    1.000
    C118     C        0.59890    0.64990    0.75450    1.000
    C119     C        0.61670    0.56680    0.74460    1.000
    H107     H        0.58360    0.53830    0.67640    1.000
    C120     C        0.68260    0.52840    0.83530    1.000
    H108     H        0.69360    0.47370    0.82640    1.000
    Co7      Co       0.74090    0.00866    0.50112    1.000
    Co8      Co       0.82874    0.50102    0.08671    1.000
    N37      N        0.71290    0.08000    0.36760    1.000
    N38      N        0.75560    0.40080    0.06580    1.000
    N39      N        0.63480    0.23040    0.09740    1.000
    H109     H        0.58420    0.22700    0.04600    1.000
    N40      N        0.67030    0.90310    0.39350    1.000
    N41      N        0.34010    0.55930    0.05620    1.000
    N42      N        0.54250    0.69050    0.19010    1.000
    H110     H        0.55600    0.66500    0.15700    1.000
    N43      N        0.81370    0.10750    0.62310    1.000
    N44      N        0.86580    0.41820    0.02760    1.000
    N45      N        0.94020    0.26400    0.90780    1.000
    H111     H        0.99030    0.26300    0.95000    1.000
    N46      N        0.90040    0.60360    0.11530    1.000
    N47      N        0.23240    0.93600    0.43610    1.000
    N48      N        0.03120    0.81340    0.15910    1.000
    H112     H        0.00400    0.83900    0.09300    1.000
    C121     C        0.75830    0.13910    0.37900    1.000
    H113     H        0.80760    0.14590    0.44910    1.000
    C122     C        0.73660    0.19110    0.29260    1.000
    H114     H        0.77020    0.23200    0.30510    1.000
    C123     C        0.66350    0.18060    0.18710    1.000
    C124     C        0.61630    0.11690    0.17400    1.000
    H115     H        0.56760    0.10650    0.10430    1.000
    C125     C        0.64260    0.07040    0.26510    1.000
    H116     H        0.60990    0.02980    0.25530    1.000
    C126     C        0.78710    0.32680    0.12310    1.000
    H117     H        0.83670    0.31400    0.15580    1.000
    C127     C        0.75070    0.26870    0.13650    1.000
    H118     H        0.77550    0.21870    0.17790    1.000
    C128     C        0.67530    0.28660    0.08620    1.000
    C129     C        0.63970    0.36020    0.02160    1.000
    H119     H        0.58910    0.37290    0.98430    1.000
    C130     C        0.68180    0.41370    0.01460    1.000
    H120     H        0.65750    0.46290    0.97090    1.000
    C131     C        0.68800    0.85640    0.34550    1.000
    H121     H        0.73060    0.87270    0.35780    1.000
    C132     C        0.64670    0.78610    0.27930    1.000
    H122     H        0.66150    0.75540    0.24830    1.000
    C133     C        0.58190    0.76110    0.25890    1.000
    C134     C        0.56250    0.80890    0.30720    1.000
    H123     H        0.51990    0.79450    0.29580    1.000
    C135     C        0.60800    0.87870    0.37260    1.000
    H124     H        0.59440    0.91080    0.40430    1.000
    C136     C        0.37380    0.61520    0.14050    1.000
    H125     H        0.35030    0.62460    0.16680    1.000
    C137     C        0.44140    0.66040    0.19200    1.000
    H126     H        0.46330    0.69620    0.25270    1.000
    C138     C        0.47560    0.65040    0.14920    1.000
    C139     C        0.44170    0.59150    0.06270    1.000
    H127     H        0.46340    0.58070    0.03390    1.000
    C140     C        0.37550    0.54940    0.01990    1.000
    H128     H        0.35370    0.51120    0.96140    1.000
    C141     C        0.88930    0.09820    0.70920    1.000
    H129     H        0.91440    0.05560    0.70480    1.000
    C142     C        0.93270    0.14850    0.80470    1.000
    H130     H        0.98530    0.13940    0.86250    1.000
    C143     C        0.89620    0.21320    0.81290    1.000
    C144     C        0.81810    0.22590    0.72190    1.000
    H131     H        0.79200    0.26940    0.72300    1.000
    C145     C        0.78020    0.17360    0.63060    1.000
    H132     H        0.72820    0.18390    0.56970    1.000
    C146     C        0.82280    0.35210    0.95800    1.000
    H133     H        0.77570    0.34210    0.93580    1.000
    C147     C        0.84480    0.29880    0.91820    1.000
    H134     H        0.81390    0.25240    0.87300    1.000
    C148     C        0.91370    0.31390    0.94530    1.000
    C149     C        0.96110    0.37940    0.02290    1.000
    H135     H        0.00920    0.38980    0.04860    1.000
    C150     C        0.93470    0.42800    0.06000    1.000
    H136     H        0.96680    0.47110    0.11170    1.000
    C151     C        0.95380    0.64100    0.21420    1.000
    H137     H        0.96140    0.61930    0.27370    1.000
    C152     C        0.99850    0.70950    0.23500    1.000
    H138     H        0.03390    0.73350    0.30610    1.000
    C153     C        0.99080    0.74250    0.15050    1.000
    C154     C        0.93450    0.70480    0.04500    1.000
    H139     H        0.92570    0.72570    0.98430    1.000
    C155     C        0.89270    0.63730    0.03210    1.000
    H140     H        0.85650    0.61260    0.96160    1.000
    C156     C        0.21650    0.85440    0.44290    1.000
    H141     H        0.25210    0.82640    0.51130    1.000
    C157     C        0.15160    0.80970    0.35640    1.000
    H142     H        0.14360    0.75360    0.36620    1.000
    C158     C        0.09890    0.85010    0.25450    1.000
    C159     C        0.11670    0.93320    0.24460    1.000
    H143     H        0.08360    0.96170    0.17640    1.000
    C160     C        0.18260    0.97160    0.33530    1.000
    H144     H        0.19360    0.02630    0.32640    1.000
