# CIF file generated by openbabel 3.1.0, see https://openbabel.org
data_I
_chemical_name_common 'image0'
_cell_length_a 12.2987
_cell_length_b 7.6559
_cell_length_c 14.6269
_cell_angle_alpha 90
_cell_angle_beta 106.545
_cell_angle_gamma 90
_space_group_name_H-M_alt 'P 1'
_space_group_name_Hall 'P 1'
loop_
    _symmetry_equiv_pos_as_xyz
    x,y,z
loop_
    _atom_site_label
    _atom_site_type_symbol
    _atom_site_fract_x
    _atom_site_fract_y
    _atom_site_fract_z
    _atom_site_occupancy
    N1       N        0.98930    0.79610    0.10510    1.000
    N2       N        0.91190    0.20330    0.39810    1.000
    C1       C        0.96230    0.69400    0.15180    1.000
    C2       C        0.90370    0.30530    0.33880    1.000
    N3       N        0.70310    0.05060    0.08990    1.000
    C3       C        0.53400    0.14500    0.13080    1.000
    H1       H        0.46820    0.21230    0.11470    1.000
    C4       C        0.61300    0.13800    0.07300    1.000
    H2       H        0.59470    0.20580    0.01800    1.000
    C5       C        0.56450    0.04570    0.20860    1.000
    C6       C        0.34020    0.04370    0.44700    1.000
    H3       H        0.41310    0.05990    0.48720    1.000
    C7       C        0.24950    0.03810    0.48450    1.000
    H4       H        0.26170    0.06160    0.54900    1.000
    C8       C        0.21360    0.96670    0.29480    1.000
    H5       H        0.20150    0.92630    0.23270    1.000
    C9       C        0.12670    0.97240    0.33680    1.000
    H6       H        0.05280    0.95660    0.29850    1.000
    C10      C        0.41560    0.03450    0.30820    1.000
    C11      C        0.48780    0.03890    0.26700    1.000
    C12      C        0.32370    0.02500    0.35020    1.000
    C13      C        0.66800    0.96200    0.23040    1.000
    H7       H        0.69370    0.90110    0.28770    1.000
    C14      C        0.73300    0.96640    0.16860    1.000
    H8       H        0.80150    0.90620    0.18440    1.000
    N4       N        0.01070    0.79610    0.89490    1.000
    N5       N        0.08810    0.20330    0.60190    1.000
    C15      C        0.03770    0.69400    0.84820    1.000
    C16      C        0.09630    0.30530    0.66120    1.000
    N6       N        0.29690    0.05060    0.91010    1.000
    C17      C        0.46600    0.14500    0.86920    1.000
    H9       H        0.53180    0.21230    0.88530    1.000
    C18      C        0.38700    0.13800    0.92700    1.000
    H10      H        0.40530    0.20580    0.98200    1.000
    C19      C        0.43550    0.04570    0.79140    1.000
    C20      C        0.65980    0.04370    0.55300    1.000
    H11      H        0.58690    0.05990    0.51280    1.000
    C21      C        0.75050    0.03810    0.51550    1.000
    H12      H        0.73830    0.06160    0.45100    1.000
    C22      C        0.78640    0.96670    0.70520    1.000
    H13      H        0.79850    0.92630    0.76730    1.000
    C23      C        0.87330    0.97240    0.66320    1.000
    H14      H        0.94720    0.95660    0.70150    1.000
    C24      C        0.58440    0.03450    0.69180    1.000
    C25      C        0.51220    0.03890    0.73300    1.000
    C26      C        0.67630    0.02500    0.64980    1.000
    C27      C        0.33200    0.96200    0.76960    1.000
    H15      H        0.30630    0.90110    0.71230    1.000
    C28      C        0.26700    0.96640    0.83140    1.000
    H16      H        0.19850    0.90620    0.81560    1.000
    N7       N        0.01070    0.20390    0.89490    1.000
    N8       N        0.08810    0.79670    0.60190    1.000
    C29      C        0.03770    0.30600    0.84820    1.000
    C30      C        0.09630    0.69470    0.66120    1.000
    N9       N        0.29690    0.94940    0.91010    1.000
    C31      C        0.46600    0.85500    0.86920    1.000
    H17      H        0.53180    0.78770    0.88530    1.000
    C32      C        0.38700    0.86200    0.92700    1.000
    H18      H        0.40530    0.79420    0.98200    1.000
    C33      C        0.43550    0.95430    0.79140    1.000
    C34      C        0.65980    0.95630    0.55300    1.000
    H19      H        0.58690    0.94010    0.51280    1.000
    C35      C        0.75050    0.96190    0.51550    1.000
    H20      H        0.73830    0.93840    0.45100    1.000
    C36      C        0.78640    0.03330    0.70520    1.000
    H21      H        0.79850    0.07370    0.76730    1.000
    C37      C        0.87330    0.02760    0.66320    1.000
    H22      H        0.94720    0.04340    0.70150    1.000
    C38      C        0.58440    0.96550    0.69180    1.000
    C39      C        0.51220    0.96110    0.73300    1.000
    C40      C        0.67630    0.97500    0.64980    1.000
    C41      C        0.33200    0.03800    0.76960    1.000
    H23      H        0.30630    0.09890    0.71230    1.000
    C42      C        0.26700    0.03360    0.83140    1.000
    H24      H        0.19850    0.09380    0.81560    1.000
    N10      N        0.98930    0.20390    0.10510    1.000
    N11      N        0.91190    0.79670    0.39810    1.000
    C43      C        0.96230    0.30600    0.15180    1.000
    C44      C        0.90370    0.69470    0.33880    1.000
    N12      N        0.70310    0.94940    0.08990    1.000
    C45      C        0.53400    0.85500    0.13080    1.000
    H25      H        0.46820    0.78770    0.11470    1.000
    C46      C        0.61300    0.86200    0.07300    1.000
    H26      H        0.59470    0.79420    0.01800    1.000
    C47      C        0.56450    0.95430    0.20860    1.000
    C48      C        0.34020    0.95630    0.44700    1.000
    H27      H        0.41310    0.94010    0.48720    1.000
    C49      C        0.24950    0.96190    0.48450    1.000
    H28      H        0.26170    0.93840    0.54900    1.000
    C50      C        0.21360    0.03330    0.29480    1.000
    H29      H        0.20150    0.07370    0.23270    1.000
    C51      C        0.12670    0.02760    0.33680    1.000
    H30      H        0.05280    0.04340    0.29850    1.000
    C52      C        0.41560    0.96550    0.30820    1.000
    C53      C        0.48780    0.96110    0.26700    1.000
    C54      C        0.32370    0.97500    0.35020    1.000
    C55      C        0.66800    0.03800    0.23040    1.000
    H31      H        0.69370    0.09890    0.28770    1.000
    C56      C        0.73300    0.03360    0.16860    1.000
    H32      H        0.80150    0.09380    0.18440    1.000
    Mo1      Mo       0.90116    0.50000    0.23261    1.000
    N13      N        0.10200    0.50000    0.32380    1.000
    C57      C        0.45020    0.50000    0.47810    1.000
    C58      C        0.24880    0.50000    0.47190    1.000
    H33      H        0.26790    0.50000    0.53820    1.000
    C59      C        0.13700    0.50000    0.42020    1.000
    H34      H        0.08240    0.50000    0.45300    1.000
    C60      C        0.18560    0.50000    0.28110    1.000
    H35      H        0.16430    0.50000    0.21480    1.000
    C61      C        0.33360    0.50000    0.42750    1.000
    C62      C        0.29730    0.50000    0.32660    1.000
    H36      H        0.35020    0.50000    0.29210    1.000
    Mo2      Mo       0.09884    0.50000    0.76739    1.000
    N14      N        0.89800    0.50000    0.67620    1.000
    C63      C        0.54980    0.50000    0.52190    1.000
    C64      C        0.75120    0.50000    0.52810    1.000
    H37      H        0.73210    0.50000    0.46180    1.000
    C65      C        0.86300    0.50000    0.57980    1.000
    H38      H        0.91760    0.50000    0.54700    1.000
    C66      C        0.81440    0.50000    0.71890    1.000
    H39      H        0.83570    0.50000    0.78520    1.000
    C67      C        0.66640    0.50000    0.57250    1.000
    C68      C        0.70270    0.50000    0.67340    1.000
    H40      H        0.64980    0.50000    0.70790    1.000
    Mn1      Mn       0.00000    0.00000    0.00000    1.000
    Mn2      Mn       0.00000    0.00000    0.50000    1.000
    N15      N        0.14380    0.00000    0.43110    1.000
    N16      N        0.85620    0.00000    0.56890    1.000
