# CIF file generated by openbabel 3.1.0, see https://openbabel.org
data_I
_chemical_name_common 'image0'
_cell_length_a 16.9915
_cell_length_b 24.799
_cell_length_c 6.7833
_cell_angle_alpha 90
_cell_angle_beta 95.784
_cell_angle_gamma 90
_space_group_name_H-M_alt 'P 1'
_space_group_name_Hall 'P 1'
loop_
    _symmetry_equiv_pos_as_xyz
    x,y,z
loop_
    _atom_site_label
    _atom_site_type_symbol
    _atom_site_fract_x
    _atom_site_fract_y
    _atom_site_fract_z
    _atom_site_occupancy
    Pr1      Pr       0.23071    0.66213    0.38240    1.000
    Ag1      Ag       0.72940    0.77129    0.50981    1.000
    Ag2      Ag       0.73488    0.51054    0.59660    1.000
    N1       N        0.85087    0.52911    0.49920    1.000
    N2       N        0.85567    0.77221    0.50080    1.000
    N3       N        0.61316    0.53713    0.62480    1.000
    N4       N        0.60317    0.77207    0.51670    1.000
    O1       O        0.11470    0.60646    0.39790    1.000
    O2       O        0.08681    0.55666    0.12600    1.000
    O3       O        0.13823    0.73028    0.45800    1.000
    O4       O        0.14559    0.81468    0.56870    1.000
    O5       O        0.33440    0.60208    0.52710    1.000
    O6       O        0.34975    0.58336    0.85090    1.000
    O7       O        0.31686    0.73056    0.54890    1.000
    O8       O        0.32798    0.81560    0.65450    1.000
    O9       O        0.24082    0.57809    0.16240    1.000
    H1       H        0.23920    0.54680    0.21290    1.000
    H2       H        0.24570    0.58160    0.03950    1.000
    C1       C        0.07110    0.57562    0.28650    1.000
    C2       C        0.99220    0.56064    0.35860    1.000
    C3       C        0.97350    0.57669    0.54450    1.000
    H3       H        0.00830    0.59820    0.62460    1.000
    C4       C        0.90290    0.56045    0.60910    1.000
    H4       H        0.89080    0.57160    0.73340    1.000
    C5       C        0.86980    0.51363    0.32070    1.000
    H5       H        0.83470    0.49150    0.24400    1.000
    C6       C        0.93860    0.52885    0.24550    1.000
    H6       H        0.94890    0.51780    0.11960    1.000
    C7       C        0.10834    0.77273    0.51360    1.000
    C8       C        0.01968    0.77320    0.50790    1.000
    C9       C        0.97720    0.82071    0.51060    1.000
    H7       H        0.00340    0.85370    0.51600    1.000
    C10      C        0.89670    0.81897    0.50540    1.000
    H8       H        0.86900    0.85130    0.50500    1.000
    C11      C        0.89680    0.72614    0.49740    1.000
    H9       H        0.86950    0.69360    0.49390    1.000
    C12      C        0.97760    0.72515    0.49900    1.000
    H10      H        0.00400    0.69240    0.49410    1.000
    C13      C        0.37330    0.58667    0.68380    1.000
    C14      C        0.45840    0.57084    0.66510    1.000
    C15      C        0.50600    0.54937    0.82190    1.000
    H11      H        0.48700    0.54620    0.94530    1.000
    C16      C        0.58150    0.53262    0.79670    1.000
    H12      H        0.61190    0.51740    0.90430    1.000
    C17      C        0.56770    0.55959    0.47280    1.000
    H13      H        0.58910    0.56420    0.35290    1.000
    C18      C        0.49100    0.57614    0.48610    1.000
    H14      H        0.46130    0.59070    0.37630    1.000
    C19      C        0.35459    0.77296    0.58690    1.000
    C20      C        0.44112    0.77290    0.55310    1.000
    C21      C        0.48300    0.82057    0.54250    1.000
    H15      H        0.45750    0.85360    0.54880    1.000
    C22      C        0.56260    0.81848    0.52270    1.000
    H16      H        0.58980    0.85080    0.51280    1.000
    C23      C        0.56190    0.72601    0.52480    1.000
    H17      H        0.58860    0.69340    0.51940    1.000
    C24      C        0.48180    0.72512    0.54060    1.000
    H18      H        0.45520    0.69240    0.54280    1.000
    Pr2      Pr       0.76929    0.16213    0.11760    1.000
    Ag3      Ag       0.27060    0.27129    0.99019    1.000
    Ag4      Ag       0.26512    0.01054    0.90340    1.000
    N5       N        0.14913    0.02911    0.00080    1.000
    N6       N        0.14433    0.27221    0.99920    1.000
    N7       N        0.38684    0.03713    0.87520    1.000
    N8       N        0.39683    0.27207    0.98330    1.000
    O10      O        0.88530    0.10646    0.10210    1.000
    O11      O        0.91319    0.05666    0.37400    1.000
    O12      O        0.86177    0.23028    0.04200    1.000
    O13      O        0.85441    0.31468    0.93130    1.000
    O14      O        0.66560    0.10208    0.97290    1.000
    O15      O        0.65025    0.08336    0.64910    1.000
    O16      O        0.68314    0.23056    0.95110    1.000
    O17      O        0.67202    0.31560    0.84550    1.000
    O18      O        0.75918    0.07809    0.33760    1.000
    H19      H        0.76080    0.04680    0.28710    1.000
    H20      H        0.75430    0.08160    0.46050    1.000
    C25      C        0.92890    0.07562    0.21350    1.000
    C26      C        0.00780    0.06064    0.14140    1.000
    C27      C        0.02650    0.07669    0.95550    1.000
    H21      H        0.99170    0.09820    0.87540    1.000
    C28      C        0.09710    0.06045    0.89090    1.000
    H22      H        0.10920    0.07160    0.76660    1.000
    C29      C        0.13020    0.01363    0.17930    1.000
    H23      H        0.16530    0.99150    0.25600    1.000
    C30      C        0.06140    0.02885    0.25450    1.000
    H24      H        0.05110    0.01780    0.38040    1.000
    C31      C        0.89166    0.27273    0.98640    1.000
    C32      C        0.98032    0.27320    0.99210    1.000
    C33      C        0.02280    0.32071    0.98940    1.000
    H25      H        0.99660    0.35370    0.98400    1.000
    C34      C        0.10330    0.31897    0.99460    1.000
    H26      H        0.13100    0.35130    0.99500    1.000
    C35      C        0.10320    0.22614    0.00260    1.000
    H27      H        0.13050    0.19360    0.00610    1.000
    C36      C        0.02240    0.22515    0.00100    1.000
    H28      H        0.99600    0.19240    0.00590    1.000
    C37      C        0.62670    0.08667    0.81620    1.000
    C38      C        0.54160    0.07084    0.83490    1.000
    C39      C        0.49400    0.04937    0.67810    1.000
    H29      H        0.51300    0.04620    0.55470    1.000
    C40      C        0.41850    0.03262    0.70330    1.000
    H30      H        0.38810    0.01740    0.59570    1.000
    C41      C        0.43230    0.05959    0.02720    1.000
    H31      H        0.41090    0.06420    0.14710    1.000
    C42      C        0.50900    0.07614    0.01390    1.000
    H32      H        0.53870    0.09070    0.12370    1.000
    C43      C        0.64541    0.27296    0.91310    1.000
    C44      C        0.55888    0.27290    0.94690    1.000
    C45      C        0.51700    0.32057    0.95750    1.000
    H33      H        0.54250    0.35360    0.95120    1.000
    C46      C        0.43740    0.31848    0.97730    1.000
    H34      H        0.41020    0.35080    0.98720    1.000
    C47      C        0.43810    0.22601    0.97520    1.000
    H35      H        0.41140    0.19340    0.98060    1.000
    C48      C        0.51820    0.22512    0.95940    1.000
    H36      H        0.54480    0.19240    0.95720    1.000
    Pr3      Pr       0.76929    0.33787    0.61760    1.000
    Ag5      Ag       0.27060    0.22871    0.49019    1.000
    Ag6      Ag       0.26512    0.48946    0.40340    1.000
    N9       N        0.14913    0.47089    0.50080    1.000
    N10      N        0.14433    0.22779    0.49920    1.000
    N11      N        0.38684    0.46287    0.37520    1.000
    N12      N        0.39683    0.22793    0.48330    1.000
    O19      O        0.88530    0.39354    0.60210    1.000
    O20      O        0.91319    0.44334    0.87400    1.000
    O21      O        0.86177    0.26972    0.54200    1.000
    O22      O        0.85441    0.18532    0.43130    1.000
    O23      O        0.66560    0.39792    0.47290    1.000
    O24      O        0.65025    0.41664    0.14910    1.000
    O25      O        0.68314    0.26944    0.45110    1.000
    O26      O        0.67202    0.18440    0.34550    1.000
    O27      O        0.75918    0.42191    0.83760    1.000
    H37      H        0.76080    0.45320    0.78710    1.000
    H38      H        0.75430    0.41840    0.96050    1.000
    C49      C        0.92890    0.42438    0.71350    1.000
    C50      C        0.00780    0.43936    0.64140    1.000
    C51      C        0.02650    0.42331    0.45550    1.000
    H39      H        0.99170    0.40180    0.37540    1.000
    C52      C        0.09710    0.43955    0.39090    1.000
    H40      H        0.10920    0.42840    0.26660    1.000
    C53      C        0.13020    0.48637    0.67930    1.000
    H41      H        0.16530    0.50850    0.75600    1.000
    C54      C        0.06140    0.47115    0.75450    1.000
    H42      H        0.05110    0.48220    0.88040    1.000
    C55      C        0.89166    0.22727    0.48640    1.000
    C56      C        0.98032    0.22680    0.49210    1.000
    C57      C        0.02280    0.17929    0.48940    1.000
    H43      H        0.99660    0.14630    0.48400    1.000
    C58      C        0.10330    0.18103    0.49460    1.000
    H44      H        0.13100    0.14870    0.49500    1.000
    C59      C        0.10320    0.27386    0.50260    1.000
    H45      H        0.13050    0.30640    0.50610    1.000
    C60      C        0.02240    0.27485    0.50100    1.000
    H46      H        0.99600    0.30760    0.50590    1.000
    C61      C        0.62670    0.41333    0.31620    1.000
    C62      C        0.54160    0.42916    0.33490    1.000
    C63      C        0.49400    0.45063    0.17810    1.000
    H47      H        0.51300    0.45380    0.05470    1.000
    C64      C        0.41850    0.46738    0.20330    1.000
    H48      H        0.38810    0.48260    0.09570    1.000
    C65      C        0.43230    0.44041    0.52720    1.000
    H49      H        0.41090    0.43580    0.64710    1.000
    C66      C        0.50900    0.42386    0.51390    1.000
    H50      H        0.53870    0.40930    0.62370    1.000
    C67      C        0.64541    0.22704    0.41310    1.000
    C68      C        0.55888    0.22710    0.44690    1.000
    C69      C        0.51700    0.17943    0.45750    1.000
    H51      H        0.54250    0.14640    0.45120    1.000
    C70      C        0.43740    0.18152    0.47730    1.000
    H52      H        0.41020    0.14920    0.48720    1.000
    C71      C        0.43810    0.27399    0.47520    1.000
    H53      H        0.41140    0.30660    0.48060    1.000
    C72      C        0.51820    0.27488    0.45940    1.000
    H54      H        0.54480    0.30760    0.45720    1.000
    Pr4      Pr       0.23071    0.83787    0.88240    1.000
    Ag7      Ag       0.72940    0.72871    0.00981    1.000
    Ag8      Ag       0.73488    0.98946    0.09660    1.000
    N13      N        0.85087    0.97089    0.99920    1.000
    N14      N        0.85567    0.72779    0.00080    1.000
    N15      N        0.61316    0.96287    0.12480    1.000
    N16      N        0.60317    0.72793    0.01670    1.000
    O28      O        0.11470    0.89354    0.89790    1.000
    O29      O        0.08681    0.94334    0.62600    1.000
    O30      O        0.13823    0.76972    0.95800    1.000
    O31      O        0.14559    0.68532    0.06870    1.000
    O32      O        0.33440    0.89792    0.02710    1.000
    O33      O        0.34975    0.91664    0.35090    1.000
    O34      O        0.31686    0.76944    0.04890    1.000
    O35      O        0.32798    0.68440    0.15450    1.000
    O36      O        0.24082    0.92191    0.66240    1.000
    H55      H        0.23920    0.95320    0.71290    1.000
    H56      H        0.24570    0.91840    0.53950    1.000
    C73      C        0.07110    0.92438    0.78650    1.000
    C74      C        0.99220    0.93936    0.85860    1.000
    C75      C        0.97350    0.92331    0.04450    1.000
    H57      H        0.00830    0.90180    0.12460    1.000
    C76      C        0.90290    0.93955    0.10910    1.000
    H58      H        0.89080    0.92840    0.23340    1.000
    C77      C        0.86980    0.98637    0.82070    1.000
    H59      H        0.83470    0.00850    0.74400    1.000
    C78      C        0.93860    0.97115    0.74550    1.000
    H60      H        0.94890    0.98220    0.61960    1.000
    C79      C        0.10834    0.72727    0.01360    1.000
    C80      C        0.01968    0.72680    0.00790    1.000
    C81      C        0.97720    0.67929    0.01060    1.000
    H61      H        0.00340    0.64630    0.01600    1.000
    C82      C        0.89670    0.68103    0.00540    1.000
    H62      H        0.86900    0.64870    0.00500    1.000
    C83      C        0.89680    0.77386    0.99740    1.000
    H63      H        0.86950    0.80640    0.99390    1.000
    C84      C        0.97760    0.77485    0.99900    1.000
    H64      H        0.00400    0.80760    0.99410    1.000
    C85      C        0.37330    0.91333    0.18380    1.000
    C86      C        0.45840    0.92916    0.16510    1.000
    C87      C        0.50600    0.95063    0.32190    1.000
    H65      H        0.48700    0.95380    0.44530    1.000
    C88      C        0.58150    0.96738    0.29670    1.000
    H66      H        0.61190    0.98260    0.40430    1.000
    C89      C        0.56770    0.94041    0.97280    1.000
    H67      H        0.58910    0.93580    0.85290    1.000
    C90      C        0.49100    0.92386    0.98610    1.000
    H68      H        0.46130    0.90930    0.87630    1.000
    C91      C        0.35459    0.72704    0.08690    1.000
    C92      C        0.44112    0.72710    0.05310    1.000
    C93      C        0.48300    0.67943    0.04250    1.000
    H69      H        0.45750    0.64640    0.04880    1.000
    C94      C        0.56260    0.68152    0.02270    1.000
    H70      H        0.58980    0.64920    0.01280    1.000
    C95      C        0.56190    0.77399    0.02480    1.000
    H71      H        0.58860    0.80660    0.01940    1.000
    C96      C        0.48180    0.77488    0.04060    1.000
    H72      H        0.45520    0.80760    0.04280    1.000
