# CIF file generated by openbabel 3.1.0, see https://openbabel.org
data_I
_chemical_name_common 'image0'
_cell_length_a 15.0535
_cell_length_b 21.8564
_cell_length_c 3.6939
_cell_angle_alpha 90
_cell_angle_beta 90
_cell_angle_gamma 90
_space_group_name_H-M_alt 'P 1'
_space_group_name_Hall 'P 1'
loop_
    _symmetry_equiv_pos_as_xyz
    x,y,z
loop_
    _atom_site_label
    _atom_site_type_symbol
    _atom_site_fract_x
    _atom_site_fract_y
    _atom_site_fract_z
    _atom_site_occupancy
    Ag1      Ag       0.13276    0.00276    0.53540    1.000
    N1       N        0.18169    0.09534    0.55780    1.000
    C1       C        0.29363    0.17136    0.47100    1.000
    H1       H        0.35180    0.18040    0.40540    1.000
    C2       C        0.26413    0.11221    0.46820    1.000
    H2       H        0.30390    0.08180    0.39950    1.000
    C3       C        0.23564    0.21785    0.57330    1.000
    C4       C        0.12681    0.13995    0.66810    1.000
    H3       H        0.06990    0.12920    0.74270    1.000
    C5       C        0.14992    0.20008    0.67690    1.000
    H4       H        0.10890    0.22930    0.75140    1.000
    Ag2      Ag       0.63276    0.50276    0.53540    1.000
    N2       N        0.68169    0.59534    0.55780    1.000
    C6       C        0.79363    0.67136    0.47100    1.000
    H5       H        0.85180    0.68040    0.40540    1.000
    C7       C        0.76413    0.61221    0.46820    1.000
    H6       H        0.80390    0.58180    0.39950    1.000
    C8       C        0.73564    0.71785    0.57330    1.000
    C9       C        0.62681    0.63995    0.66810    1.000
    H7       H        0.56990    0.62920    0.74270    1.000
    C10      C        0.64992    0.70008    0.67690    1.000
    H8       H        0.60890    0.72930    0.75140    1.000
    Ag3      Ag       0.86724    0.99724    0.53540    1.000
    N3       N        0.81831    0.90466    0.55780    1.000
    C11      C        0.70637    0.82864    0.47100    1.000
    H9       H        0.64820    0.81960    0.40540    1.000
    C12      C        0.73587    0.88779    0.46820    1.000
    H10      H        0.69610    0.91820    0.39950    1.000
    C13      C        0.76436    0.78215    0.57330    1.000
    C14      C        0.87319    0.86005    0.66810    1.000
    H11      H        0.93010    0.87080    0.74270    1.000
    C15      C        0.85008    0.79992    0.67690    1.000
    H12      H        0.89110    0.77070    0.75140    1.000
    Ag4      Ag       0.36724    0.49724    0.53540    1.000
    N4       N        0.31831    0.40466    0.55780    1.000
    C16      C        0.20637    0.32864    0.47100    1.000
    H13      H        0.14820    0.31960    0.40540    1.000
    C17      C        0.23587    0.38779    0.46820    1.000
    H14      H        0.19610    0.41820    0.39950    1.000
    C18      C        0.26436    0.28215    0.57330    1.000
    C19      C        0.37319    0.36005    0.66810    1.000
    H15      H        0.43010    0.37080    0.74270    1.000
    C20      C        0.35008    0.29992    0.67690    1.000
    H16      H        0.39110    0.27070    0.75140    1.000
    Ag5      Ag       0.86724    0.00276    0.46460    1.000
    N5       N        0.81831    0.09534    0.44220    1.000
    C21      C        0.70637    0.17136    0.52900    1.000
    H17      H        0.64820    0.18040    0.59460    1.000
    C22      C        0.73587    0.11221    0.53180    1.000
    H18      H        0.69610    0.08180    0.60050    1.000
    C23      C        0.76436    0.21785    0.42670    1.000
    C24      C        0.87319    0.13995    0.33190    1.000
    H19      H        0.93010    0.12920    0.25730    1.000
    C25      C        0.85008    0.20008    0.32310    1.000
    H20      H        0.89110    0.22930    0.24860    1.000
    Ag6      Ag       0.36724    0.50276    0.46460    1.000
    N6       N        0.31831    0.59534    0.44220    1.000
    C26      C        0.20637    0.67136    0.52900    1.000
    H21      H        0.14820    0.68040    0.59460    1.000
    C27      C        0.23587    0.61221    0.53180    1.000
    H22      H        0.19610    0.58180    0.60050    1.000
    C28      C        0.26436    0.71785    0.42670    1.000
    C29      C        0.37319    0.63995    0.33190    1.000
    H23      H        0.43010    0.62920    0.25730    1.000
    C30      C        0.35008    0.70008    0.32310    1.000
    H24      H        0.39110    0.72930    0.24860    1.000
    Ag7      Ag       0.13276    0.99724    0.46460    1.000
    N7       N        0.18169    0.90466    0.44220    1.000
    C31      C        0.29363    0.82864    0.52900    1.000
    H25      H        0.35180    0.81960    0.59460    1.000
    C32      C        0.26413    0.88779    0.53180    1.000
    H26      H        0.30390    0.91820    0.60050    1.000
    C33      C        0.23564    0.78215    0.42670    1.000
    C34      C        0.12681    0.86005    0.33190    1.000
    H27      H        0.06990    0.87080    0.25730    1.000
    C35      C        0.14992    0.79992    0.32310    1.000
    H28      H        0.10890    0.77070    0.24860    1.000
    Ag8      Ag       0.63276    0.49724    0.46460    1.000
    N8       N        0.68169    0.40466    0.44220    1.000
    C36      C        0.79363    0.32864    0.52900    1.000
    H29      H        0.85180    0.31960    0.59460    1.000
    C37      C        0.76413    0.38779    0.53180    1.000
    H30      H        0.80390    0.41820    0.60050    1.000
    C38      C        0.73564    0.28215    0.42670    1.000
    C39      C        0.62681    0.36005    0.33190    1.000
    H31      H        0.56990    0.37080    0.25730    1.000
    C40      C        0.64992    0.29992    0.32310    1.000
    H32      H        0.60890    0.27070    0.24860    1.000
    Cl1      Cl       0.00000    0.00000    0.00000    1.000
    Cl2      Cl       0.50000    0.50000    0.00000    1.000
