# CIF file generated by openbabel 3.1.0, see https://openbabel.org
data_I
_chemical_name_common 'SAHYAD_charged'
_cell_length_a 15.9014
_cell_length_b 15.9014
_cell_length_c 21.666
_cell_angle_alpha 90
_cell_angle_beta 90
_cell_angle_gamma 90
_space_group_name_H-M_alt 'P 1'
_space_group_name_Hall 'P 1'
loop_
    _symmetry_equiv_pos_as_xyz
    x,y,z
loop_
    _atom_site_label
    _atom_site_type_symbol
    _atom_site_fract_x
    _atom_site_fract_y
    _atom_site_fract_z
    _atom_site_occupancy
    Cd1      Cd       0.94174    0.05826    0.75000    1.000
    Cd2      Cd       0.05826    0.94174    0.25000    1.000
    Cd3      Cd       0.44174    0.44174    0.50000    1.000
    Cd4      Cd       0.55826    0.55826    0.00000    1.000
    H1       H        0.00850    0.23590    0.67740    1.000
    H2       H        0.10360    0.34530    0.68670    1.000
    H3       H        0.15640    0.26220    0.85890    1.000
    H4       H        0.06100    0.15550    0.84360    1.000
    H5       H        0.16610    0.45900    0.71330    1.000
    H6       H        0.26940    0.56090    0.72240    1.000
    H7       H        0.38080    0.54290    0.79150    1.000
    H8       H        0.27790    0.32240    0.84660    1.000
    H9       H        0.49580    0.29760    0.04350    1.000
    H10      H        0.58810    0.19780    0.08690    1.000
    H11      H        0.70180    0.14710    0.03120    1.000
    H12      H        0.63940    0.30040    0.88920    1.000
    H13      H        0.78350    0.08190    0.96540    1.000
    H14      H        0.88990    0.03610    0.90200    1.000
    H15      H        0.85840    0.22870    0.79110    1.000
    H16      H        0.75910    0.28540    0.85490    1.000
    H17      H        0.47510    0.25140    0.85920    1.000
    H18      H        0.39630    0.24040    0.89860    1.000
    H19      H        0.99150    0.76410    0.17740    1.000
    H20      H        0.89640    0.65470    0.18670    1.000
    H21      H        0.84360    0.73780    0.35890    1.000
    H22      H        0.93900    0.84450    0.34360    1.000
    H23      H        0.83390    0.54100    0.21330    1.000
    H24      H        0.73060    0.43910    0.22240    1.000
    H25      H        0.61920    0.45710    0.29150    1.000
    H26      H        0.72210    0.67760    0.34660    1.000
    H27      H        0.50420    0.70240    0.54350    1.000
    H28      H        0.41190    0.80220    0.58690    1.000
    H29      H        0.29820    0.85290    0.53120    1.000
    H30      H        0.36060    0.69960    0.38920    1.000
    H31      H        0.21650    0.91810    0.46540    1.000
    H32      H        0.11010    0.96390    0.40200    1.000
    H33      H        0.14160    0.77130    0.29110    1.000
    H34      H        0.24090    0.71460    0.35490    1.000
    H35      H        0.52490    0.74860    0.35920    1.000
    H36      H        0.60370    0.75960    0.39860    1.000
    H37      H        0.26410    0.50850    0.42740    1.000
    H38      H        0.15470    0.60360    0.43670    1.000
    H39      H        0.23780    0.65640    0.60890    1.000
    H40      H        0.34450    0.56100    0.59360    1.000
    H41      H        0.04100    0.66610    0.46330    1.000
    H42      H        0.93910    0.76940    0.47240    1.000
    H43      H        0.95710    0.88080    0.54150    1.000
    H44      H        0.17760    0.77790    0.59660    1.000
    H45      H        0.20240    0.99580    0.79350    1.000
    H46      H        0.30220    0.08810    0.83690    1.000
    H47      H        0.35290    0.20180    0.78120    1.000
    H48      H        0.19960    0.13940    0.63920    1.000
    H49      H        0.41810    0.28350    0.71540    1.000
    H50      H        0.46390    0.38990    0.65200    1.000
    H51      H        0.27130    0.35840    0.54110    1.000
    H52      H        0.21460    0.25910    0.60490    1.000
    H53      H        0.24860    0.97510    0.60920    1.000
    H54      H        0.25960    0.89630    0.64860    1.000
    H55      H        0.73590    0.49150    0.92740    1.000
    H56      H        0.84530    0.39640    0.93670    1.000
    H57      H        0.76220    0.34360    0.10890    1.000
    H58      H        0.65550    0.43900    0.09360    1.000
    H59      H        0.95900    0.33390    0.96330    1.000
    H60      H        0.06090    0.23060    0.97240    1.000
    H61      H        0.04290    0.11920    0.04150    1.000
    H62      H        0.82240    0.22210    0.09660    1.000
    H63      H        0.79760    0.00420    0.29350    1.000
    H64      H        0.69780    0.91190    0.33690    1.000
    H65      H        0.64710    0.79820    0.28120    1.000
    H66      H        0.80040    0.86060    0.13920    1.000
    H67      H        0.58190    0.71650    0.21540    1.000
    H68      H        0.53610    0.61010    0.15200    1.000
    H69      H        0.72870    0.64160    0.04110    1.000
    H70      H        0.78540    0.74090    0.10490    1.000
    H71      H        0.75140    0.02490    0.10920    1.000
    H72      H        0.74040    0.10370    0.14860    1.000
    H73      H        0.49150    0.73590    0.07260    1.000
    H74      H        0.39640    0.84530    0.06330    1.000
    H75      H        0.34360    0.76220    0.89110    1.000
    H76      H        0.43900    0.65550    0.90640    1.000
    H77      H        0.33390    0.95900    0.03670    1.000
    H78      H        0.23060    0.06090    0.02760    1.000
    H79      H        0.11920    0.04290    0.95850    1.000
    H80      H        0.22210    0.82240    0.90340    1.000
    H81      H        0.00420    0.79760    0.70650    1.000
    H82      H        0.91190    0.69780    0.66310    1.000
    H83      H        0.79820    0.64710    0.71880    1.000
    H84      H        0.86060    0.80040    0.86080    1.000
    H85      H        0.71650    0.58190    0.78460    1.000
    H86      H        0.61010    0.53610    0.84800    1.000
    H87      H        0.64160    0.72870    0.95890    1.000
    H88      H        0.74090    0.78540    0.89510    1.000
    H89      H        0.02490    0.75140    0.89080    1.000
    H90      H        0.10370    0.74040    0.85140    1.000
    H91      H        0.50850    0.26410    0.57260    1.000
    H92      H        0.60360    0.15470    0.56330    1.000
    H93      H        0.65640    0.23780    0.39110    1.000
    H94      H        0.56100    0.34450    0.40640    1.000
    H95      H        0.66610    0.04100    0.53670    1.000
    H96      H        0.76940    0.93910    0.52760    1.000
    H97      H        0.88080    0.95710    0.45850    1.000
    H98      H        0.77790    0.17760    0.40340    1.000
    H99      H        0.99580    0.20240    0.20650    1.000
    H100     H        0.08810    0.30220    0.16310    1.000
    H101     H        0.20180    0.35290    0.21880    1.000
    H102     H        0.13940    0.19960    0.36080    1.000
    H103     H        0.28350    0.41810    0.28460    1.000
    H104     H        0.38990    0.46390    0.34800    1.000
    H105     H        0.35840    0.27130    0.45890    1.000
    H106     H        0.25910    0.21460    0.39510    1.000
    H107     H        0.97510    0.24860    0.39080    1.000
    H108     H        0.89630    0.25960    0.35140    1.000
    H109     H        0.23590    0.00850    0.32260    1.000
    H110     H        0.34530    0.10360    0.31330    1.000
    H111     H        0.26220    0.15640    0.14110    1.000
    H112     H        0.15550    0.06100    0.15640    1.000
    H113     H        0.45900    0.16610    0.28670    1.000
    H114     H        0.56090    0.26940    0.27760    1.000
    H115     H        0.54290    0.38080    0.20850    1.000
    H116     H        0.32240    0.27790    0.15340    1.000
    H117     H        0.29760    0.49580    0.95650    1.000
    H118     H        0.19780    0.58810    0.91310    1.000
    H119     H        0.14710    0.70180    0.96880    1.000
    H120     H        0.30040    0.63940    0.11080    1.000
    H121     H        0.08190    0.78350    0.03460    1.000
    H122     H        0.03610    0.88990    0.09800    1.000
    H123     H        0.22870    0.85840    0.20890    1.000
    H124     H        0.28540    0.75910    0.14510    1.000
    H125     H        0.25140    0.47510    0.14080    1.000
    H126     H        0.24040    0.39630    0.10140    1.000
    H127     H        0.76410    0.99150    0.82260    1.000
    H128     H        0.65470    0.89640    0.81330    1.000
    H129     H        0.73780    0.84360    0.64110    1.000
    H130     H        0.84450    0.93900    0.65640    1.000
    H131     H        0.54100    0.83390    0.78670    1.000
    H132     H        0.43910    0.73060    0.77760    1.000
    H133     H        0.45710    0.61920    0.70850    1.000
    H134     H        0.67760    0.72210    0.65340    1.000
    H135     H        0.70240    0.50420    0.45650    1.000
    H136     H        0.80220    0.41190    0.41310    1.000
    H137     H        0.85290    0.29820    0.46880    1.000
    H138     H        0.69960    0.36060    0.61080    1.000
    H139     H        0.91810    0.21650    0.53460    1.000
    H140     H        0.96390    0.11010    0.59800    1.000
    H141     H        0.77130    0.14160    0.70890    1.000
    H142     H        0.71460    0.24090    0.64510    1.000
    H143     H        0.74860    0.52490    0.64080    1.000
    H144     H        0.75960    0.60370    0.60140    1.000
    C1       C        0.03940    0.24140    0.71480    1.000
    C2       C        0.09650    0.30680    0.71980    1.000
    C3       C        0.14340    0.31590    0.77380    1.000
    C4       C        0.12760    0.25810    0.82060    1.000
    C5       C        0.06970    0.19480    0.81120    1.000
    C6       C        0.21050    0.38160    0.77990    1.000
    C7       C        0.20990    0.45190    0.74270    1.000
    C8       C        0.27180    0.51200    0.74760    1.000
    C9       C        0.33760    0.50180    0.78870    1.000
    C10      C        0.33940    0.43050    0.82580    1.000
    C11      C        0.27620    0.37100    0.82120    1.000
    C12      C        0.40900    0.42210    0.86960    1.000
    C13      C        0.50530    0.37150    0.93140    1.000
    C14      C        0.56080    0.30910    0.96180    1.000
    C15      C        0.54330    0.27830    0.02110    1.000
    C16      C        0.59810    0.21830    0.04640    1.000
    C17      C        0.66600    0.18840    0.01350    1.000
    C18      C        0.68250    0.21940    0.95370    1.000
    C19      C        0.62880    0.27930    0.92950    1.000
    C20      C        0.75460    0.18880    0.91640    1.000
    C21      C        0.79760    0.11330    0.92960    1.000
    C22      C        0.85960    0.08520    0.89070    1.000
    C23      C        0.84220    0.19810    0.82680    1.000
    C24      C        0.78220    0.23180    0.86440    1.000
    C25      C        0.96060    0.75860    0.21480    1.000
    C26      C        0.90350    0.69320    0.21980    1.000
    C27      C        0.85660    0.68410    0.27380    1.000
    C28      C        0.87240    0.74190    0.32060    1.000
    C29      C        0.93030    0.80520    0.31120    1.000
    C30      C        0.78950    0.61840    0.27990    1.000
    C31      C        0.79010    0.54810    0.24270    1.000
    C32      C        0.72820    0.48800    0.24760    1.000
    C33      C        0.66240    0.49820    0.28870    1.000
    C34      C        0.66060    0.56950    0.32580    1.000
    C35      C        0.72380    0.62900    0.32120    1.000
    C36      C        0.59100    0.57790    0.36960    1.000
    C37      C        0.49470    0.62850    0.43140    1.000
    C38      C        0.43920    0.69090    0.46180    1.000
    C39      C        0.45670    0.72170    0.52110    1.000
    C40      C        0.40190    0.78170    0.54640    1.000
    C41      C        0.33400    0.81160    0.51350    1.000
    C42      C        0.31750    0.78060    0.45370    1.000
    C43      C        0.37120    0.72070    0.42950    1.000
    C44      C        0.24540    0.81120    0.41640    1.000
    C45      C        0.20240    0.88670    0.42960    1.000
    C46      C        0.14040    0.91480    0.39070    1.000
    C47      C        0.15780    0.80190    0.32680    1.000
    C48      C        0.21780    0.76820    0.36440    1.000
    C49      C        0.25860    0.53940    0.46480    1.000
    C50      C        0.19320    0.59650    0.46980    1.000
    C51      C        0.18410    0.64340    0.52380    1.000
    C52      C        0.24190    0.62760    0.57060    1.000
    C53      C        0.30520    0.56970    0.56120    1.000
    C54      C        0.11840    0.71050    0.52990    1.000
    C55      C        0.04810    0.70990    0.49270    1.000
    C56      C        0.98800    0.77180    0.49760    1.000
    C57      C        0.99820    0.83760    0.53870    1.000
    C58      C        0.06950    0.83940    0.57580    1.000
    C59      C        0.12900    0.77620    0.57120    1.000
    C60      C        0.07790    0.90900    0.61960    1.000
    C61      C        0.12850    0.00530    0.68140    1.000
    C62      C        0.19090    0.06080    0.71180    1.000
    C63      C        0.22170    0.04330    0.77110    1.000
    C64      C        0.28170    0.09810    0.79640    1.000
    C65      C        0.31160    0.16600    0.76350    1.000
    C66      C        0.28060    0.18250    0.70370    1.000
    C67      C        0.22070    0.12880    0.67950    1.000
    C68      C        0.31120    0.25460    0.66640    1.000
    C69      C        0.38670    0.29760    0.67960    1.000
    C70      C        0.41480    0.35960    0.64070    1.000
    C71      C        0.30190    0.34220    0.57680    1.000
    C72      C        0.26820    0.28220    0.61440    1.000
    C73      C        0.74140    0.46060    0.96480    1.000
    C74      C        0.80680    0.40350    0.96980    1.000
    C75      C        0.81590    0.35660    0.02380    1.000
    C76      C        0.75810    0.37240    0.07060    1.000
    C77      C        0.69480    0.43030    0.06120    1.000
    C78      C        0.88160    0.28950    0.02990    1.000
    C79      C        0.95190    0.29010    0.99270    1.000
    C80      C        0.01200    0.22820    0.99760    1.000
    C81      C        0.00180    0.16240    0.03870    1.000
    C82      C        0.93050    0.16060    0.07580    1.000
    C83      C        0.87100    0.22380    0.07120    1.000
    C84      C        0.92210    0.09100    0.11960    1.000
    C85      C        0.87150    0.99470    0.18140    1.000
    C86      C        0.80910    0.93920    0.21180    1.000
    C87      C        0.77830    0.95670    0.27110    1.000
    C88      C        0.71830    0.90190    0.29640    1.000
    C89      C        0.68840    0.83400    0.26350    1.000
    C90      C        0.71940    0.81750    0.20370    1.000
    C91      C        0.77930    0.87120    0.17950    1.000
    C92      C        0.68880    0.74540    0.16640    1.000
    C93      C        0.61330    0.70240    0.17960    1.000
    C94      C        0.58520    0.64040    0.14070    1.000
    C95      C        0.69810    0.65780    0.07680    1.000
    C96      C        0.73180    0.71780    0.11440    1.000
    C97      C        0.46060    0.74140    0.03520    1.000
    C98      C        0.40350    0.80680    0.03020    1.000
    C99      C        0.35660    0.81590    0.97620    1.000
    C100     C        0.37240    0.75810    0.92940    1.000
    C101     C        0.43030    0.69480    0.93880    1.000
    C102     C        0.28950    0.88160    0.97010    1.000
    C103     C        0.29010    0.95190    0.00730    1.000
    C104     C        0.22820    0.01200    0.00240    1.000
    C105     C        0.16240    0.00180    0.96130    1.000
    C106     C        0.16060    0.93050    0.92420    1.000
    C107     C        0.22380    0.87100    0.92880    1.000
    C108     C        0.09100    0.92210    0.88040    1.000
    C109     C        0.99470    0.87150    0.81860    1.000
    C110     C        0.93920    0.80910    0.78820    1.000
    C111     C        0.95670    0.77830    0.72890    1.000
    C112     C        0.90190    0.71830    0.70360    1.000
    C113     C        0.83400    0.68840    0.73650    1.000
    C114     C        0.81750    0.71940    0.79630    1.000
    C115     C        0.87120    0.77930    0.82050    1.000
    C116     C        0.74540    0.68880    0.83360    1.000
    C117     C        0.70240    0.61330    0.82040    1.000
    C118     C        0.64040    0.58520    0.85930    1.000
    C119     C        0.65780    0.69810    0.92320    1.000
    C120     C        0.71780    0.73180    0.88560    1.000
    C121     C        0.53940    0.25860    0.53520    1.000
    C122     C        0.59650    0.19320    0.53020    1.000
    C123     C        0.64340    0.18410    0.47620    1.000
    C124     C        0.62760    0.24190    0.42940    1.000
    C125     C        0.56970    0.30520    0.43880    1.000
    C126     C        0.71050    0.11840    0.47010    1.000
    C127     C        0.70990    0.04810    0.50730    1.000
    C128     C        0.77180    0.98800    0.50240    1.000
    C129     C        0.83760    0.99820    0.46130    1.000
    C130     C        0.83940    0.06950    0.42420    1.000
    C131     C        0.77620    0.12900    0.42880    1.000
    C132     C        0.90900    0.07790    0.38040    1.000
    C133     C        0.00530    0.12850    0.31860    1.000
    C134     C        0.06080    0.19090    0.28820    1.000
    C135     C        0.04330    0.22170    0.22890    1.000
    C136     C        0.09810    0.28170    0.20360    1.000
    C137     C        0.16600    0.31160    0.23650    1.000
    C138     C        0.18250    0.28060    0.29630    1.000
    C139     C        0.12880    0.22070    0.32050    1.000
    C140     C        0.25460    0.31120    0.33360    1.000
    C141     C        0.29760    0.38670    0.32040    1.000
    C142     C        0.35960    0.41480    0.35930    1.000
    C143     C        0.34220    0.30190    0.42320    1.000
    C144     C        0.28220    0.26820    0.38560    1.000
    C145     C        0.24140    0.03940    0.28520    1.000
    C146     C        0.30680    0.09650    0.28020    1.000
    C147     C        0.31590    0.14340    0.22620    1.000
    C148     C        0.25810    0.12760    0.17940    1.000
    C149     C        0.19480    0.06970    0.18880    1.000
    C150     C        0.38160    0.21050    0.22010    1.000
    C151     C        0.45190    0.20990    0.25730    1.000
    C152     C        0.51200    0.27180    0.25240    1.000
    C153     C        0.50180    0.33760    0.21130    1.000
    C154     C        0.43050    0.33940    0.17420    1.000
    C155     C        0.37100    0.27620    0.17880    1.000
    C156     C        0.42210    0.40900    0.13040    1.000
    C157     C        0.37150    0.50530    0.06860    1.000
    C158     C        0.30910    0.56080    0.03820    1.000
    C159     C        0.27830    0.54330    0.97890    1.000
    C160     C        0.21830    0.59810    0.95360    1.000
    C161     C        0.18840    0.66600    0.98650    1.000
    C162     C        0.21940    0.68250    0.04630    1.000
    C163     C        0.27930    0.62880    0.07050    1.000
    C164     C        0.18880    0.75460    0.08360    1.000
    C165     C        0.11330    0.79760    0.07040    1.000
    C166     C        0.08520    0.85960    0.10930    1.000
    C167     C        0.19810    0.84220    0.17320    1.000
    C168     C        0.23180    0.78220    0.13560    1.000
    C169     C        0.75860    0.96060    0.78520    1.000
    C170     C        0.69320    0.90350    0.78020    1.000
    C171     C        0.68410    0.85660    0.72620    1.000
    C172     C        0.74190    0.87240    0.67940    1.000
    C173     C        0.80520    0.93030    0.68880    1.000
    C174     C        0.61840    0.78950    0.72010    1.000
    C175     C        0.54810    0.79010    0.75730    1.000
    C176     C        0.48800    0.72820    0.75240    1.000
    C177     C        0.49820    0.66240    0.71130    1.000
    C178     C        0.56950    0.66060    0.67420    1.000
    C179     C        0.62900    0.72380    0.67880    1.000
    C180     C        0.57790    0.59100    0.63040    1.000
    C181     C        0.62850    0.49470    0.56860    1.000
    C182     C        0.69090    0.43920    0.53820    1.000
    C183     C        0.72170    0.45670    0.47890    1.000
    C184     C        0.78170    0.40190    0.45360    1.000
    C185     C        0.81160    0.33400    0.48650    1.000
    C186     C        0.78060    0.31750    0.54630    1.000
    C187     C        0.72070    0.37120    0.57050    1.000
    C188     C        0.81120    0.24540    0.58360    1.000
    C189     C        0.88670    0.20240    0.57040    1.000
    C190     C        0.91480    0.14040    0.60930    1.000
    C191     C        0.80190    0.15780    0.67320    1.000
    C192     C        0.76820    0.21780    0.63560    1.000
    N1       N        0.02560    0.18520    0.75990    1.000
    N2       N        0.44700    0.48660    0.89660    1.000
    N3       N        0.50670    0.45450    0.93530    1.000
    N4       N        0.44420    0.34900    0.89080    1.000
    N5       N        0.42430    0.26750    0.87040    1.000
    N6       N        0.87980    0.12330    0.83760    1.000
    N7       N        0.97440    0.81480    0.25990    1.000
    N8       N        0.55300    0.51340    0.39660    1.000
    N9       N        0.49330    0.54550    0.43530    1.000
    N10      N        0.55580    0.65100    0.39080    1.000
    N11      N        0.57570    0.73250    0.37040    1.000
    N12      N        0.12020    0.87670    0.33760    1.000
    N13      N        0.31480    0.52560    0.50990    1.000
    N14      N        0.01340    0.94700    0.64660    1.000
    N15      N        0.04550    0.00670    0.68530    1.000
    N16      N        0.15100    0.94420    0.64080    1.000
    N17      N        0.23250    0.92430    0.62040    1.000
    N18      N        0.37670    0.37980    0.58760    1.000
    N19      N        0.68520    0.47440    0.00990    1.000
    N20      N        0.98660    0.05300    0.14660    1.000
    N21      N        0.95450    0.99330    0.18530    1.000
    N22      N        0.84900    0.05580    0.14080    1.000
    N23      N        0.76750    0.07570    0.12040    1.000
    N24      N        0.62330    0.62020    0.08760    1.000
    N25      N        0.47440    0.68520    0.99010    1.000
    N26      N        0.05300    0.98660    0.85340    1.000
    N27      N        0.99330    0.95450    0.81470    1.000
    N28      N        0.05580    0.84900    0.85920    1.000
    N29      N        0.07570    0.76750    0.87960    1.000
    N30      N        0.62020    0.62330    0.91240    1.000
    N31      N        0.52560    0.31480    0.49010    1.000
    N32      N        0.94700    0.01340    0.35340    1.000
    N33      N        0.00670    0.04550    0.31470    1.000
    N34      N        0.94420    0.15100    0.35920    1.000
    N35      N        0.92430    0.23250    0.37960    1.000
    N36      N        0.37980    0.37670    0.41240    1.000
    N37      N        0.18520    0.02560    0.24010    1.000
    N38      N        0.48660    0.44700    0.10340    1.000
    N39      N        0.45450    0.50670    0.06470    1.000
    N40      N        0.34900    0.44420    0.10920    1.000
    N41      N        0.26750    0.42430    0.12960    1.000
    N42      N        0.12330    0.87980    0.16240    1.000
    N43      N        0.81480    0.97440    0.74010    1.000
    N44      N        0.51340    0.55300    0.60340    1.000
    N45      N        0.54550    0.49330    0.56470    1.000
    N46      N        0.65100    0.55580    0.60920    1.000
    N47      N        0.73250    0.57570    0.62960    1.000
    N48      N        0.87670    0.12020    0.66240    1.000
    Cl1      Cl       0.87612    0.87612    0.00000    1.000
    O1       O        0.80890    0.88240    0.97010    1.000
    O2       O        0.92590    0.86560    0.95580    1.000
    O3       O        0.88240    0.80890    0.02990    1.000
    O4       O        0.86560    0.92590    0.04420    1.000
    Cl2      Cl       0.12388    0.12388    0.50000    1.000
    O5       O        0.19110    0.11760    0.47010    1.000
    O6       O        0.07410    0.13440    0.45580    1.000
    O7       O        0.11760    0.19110    0.52990    1.000
    O8       O        0.13440    0.07410    0.54420    1.000
    Cl3      Cl       0.62388    0.37612    0.75000    1.000
    O9       O        0.61760    0.30890    0.72010    1.000
    O10      O        0.63440    0.42590    0.70580    1.000
    O11      O        0.69110    0.38240    0.77990    1.000
    O12      O        0.57410    0.36560    0.79420    1.000
    Cl4      Cl       0.37612    0.62388    0.25000    1.000
    O13      O        0.38240    0.69110    0.22010    1.000
    O14      O        0.36560    0.57410    0.20580    1.000
    O15      O        0.30890    0.61760    0.27990    1.000
    O16      O        0.42590    0.63440    0.29420    1.000
