# CIF file generated by openbabel 3.1.0, see https://openbabel.org
data_I
_chemical_name_common 'image0'
_cell_length_a 16.006
_cell_length_b 9.873
_cell_length_c 15.198
_cell_angle_alpha 90
_cell_angle_beta 90
_cell_angle_gamma 90
_space_group_name_H-M_alt 'P 1'
_space_group_name_Hall 'P 1'
loop_
    _symmetry_equiv_pos_as_xyz
    x,y,z
loop_
    _atom_site_label
    _atom_site_type_symbol
    _atom_site_fract_x
    _atom_site_fract_y
    _atom_site_fract_z
    _atom_site_occupancy
    P1       P        0.12932    0.53362    0.39234    1.000
    O1       O        0.08651    0.58080    0.30974    1.000
    O2       O        0.20872    0.60910    0.41074    1.000
    O3       O        0.07137    0.54220    0.47268    1.000
    O4       O        0.14850    0.37850    0.38318    1.000
    H1       H        0.15700    0.35400    0.32680    1.000
    P2       P        0.12932    0.03362    0.89234    1.000
    O5       O        0.08651    0.08080    0.80974    1.000
    O6       O        0.20872    0.10910    0.91074    1.000
    O7       O        0.07137    0.04220    0.97268    1.000
    O8       O        0.14850    0.87850    0.88318    1.000
    H2       H        0.15700    0.85400    0.82680    1.000
    P3       P        0.62932    0.53362    0.89234    1.000
    O9       O        0.58651    0.58080    0.80974    1.000
    O10      O        0.70872    0.60910    0.91074    1.000
    O11      O        0.57137    0.54220    0.97268    1.000
    O12      O        0.64850    0.37850    0.88318    1.000
    H3       H        0.65700    0.35400    0.82680    1.000
    P4       P        0.62932    0.03362    0.39234    1.000
    O13      O        0.58651    0.08080    0.30974    1.000
    O14      O        0.70872    0.10910    0.41074    1.000
    O15      O        0.57137    0.04220    0.47268    1.000
    O16      O        0.64850    0.87850    0.38318    1.000
    H4       H        0.65700    0.85400    0.32680    1.000
    P5       P        0.87068    0.46638    0.39234    1.000
    O17      O        0.91349    0.41920    0.30974    1.000
    O18      O        0.79128    0.39090    0.41074    1.000
    O19      O        0.92863    0.45780    0.47268    1.000
    O20      O        0.85150    0.62150    0.38318    1.000
    H5       H        0.84300    0.64600    0.32680    1.000
    P6       P        0.87068    0.96638    0.89234    1.000
    O21      O        0.91349    0.91920    0.80974    1.000
    O22      O        0.79128    0.89090    0.91074    1.000
    O23      O        0.92863    0.95780    0.97268    1.000
    O24      O        0.85150    0.12150    0.88318    1.000
    H6       H        0.84300    0.14600    0.82680    1.000
    P7       P        0.37068    0.46638    0.89234    1.000
    O25      O        0.41349    0.41920    0.80974    1.000
    O26      O        0.29128    0.39090    0.91074    1.000
    O27      O        0.42863    0.45780    0.97268    1.000
    O28      O        0.35150    0.62150    0.88318    1.000
    H7       H        0.34300    0.64600    0.82680    1.000
    P8       P        0.37068    0.96638    0.39234    1.000
    O29      O        0.41349    0.91920    0.30974    1.000
    O30      O        0.29128    0.89090    0.41074    1.000
    O31      O        0.42863    0.95780    0.47268    1.000
    O32      O        0.35150    0.12150    0.38318    1.000
    H8       H        0.34300    0.14600    0.32680    1.000
    P9       P        0.37932    0.71638    0.64234    1.000
    O33      O        0.33651    0.66920    0.55974    1.000
    O34      O        0.45872    0.64090    0.66074    1.000
    O35      O        0.32137    0.70780    0.72268    1.000
    O36      O        0.39850    0.87150    0.63318    1.000
    H9       H        0.40700    0.89600    0.57680    1.000
    P10      P        0.37932    0.21638    0.14234    1.000
    O37      O        0.33651    0.16920    0.05974    1.000
    O38      O        0.45872    0.14090    0.16074    1.000
    O39      O        0.32137    0.20780    0.22268    1.000
    O40      O        0.39850    0.37150    0.13318    1.000
    H10      H        0.40700    0.39600    0.07680    1.000
    P11      P        0.87932    0.71638    0.14234    1.000
    O41      O        0.83651    0.66920    0.05974    1.000
    O42      O        0.95872    0.64090    0.16074    1.000
    O43      O        0.82137    0.70780    0.22268    1.000
    O44      O        0.89850    0.87150    0.13318    1.000
    H11      H        0.90700    0.89600    0.07680    1.000
    P12      P        0.87932    0.21638    0.64234    1.000
    O45      O        0.83651    0.16920    0.55974    1.000
    O46      O        0.95872    0.14090    0.66074    1.000
    O47      O        0.82137    0.20780    0.72268    1.000
    O48      O        0.89850    0.37150    0.63318    1.000
    H12      H        0.90700    0.39600    0.57680    1.000
    P13      P        0.12068    0.78362    0.64234    1.000
    O49      O        0.16349    0.83080    0.55974    1.000
    O50      O        0.04128    0.85910    0.66074    1.000
    O51      O        0.17863    0.79220    0.72268    1.000
    O52      O        0.10150    0.62850    0.63318    1.000
    H13      H        0.09300    0.60400    0.57680    1.000
    P14      P        0.12068    0.28362    0.14234    1.000
    O53      O        0.16349    0.33080    0.05974    1.000
    O54      O        0.04128    0.35910    0.16074    1.000
    O55      O        0.17863    0.29220    0.22268    1.000
    O56      O        0.10150    0.12850    0.13318    1.000
    H14      H        0.09300    0.10400    0.07680    1.000
    P15      P        0.62068    0.78362    0.14234    1.000
    O57      O        0.66349    0.83080    0.05974    1.000
    O58      O        0.54128    0.85910    0.16074    1.000
    O59      O        0.67863    0.79220    0.22268    1.000
    O60      O        0.60150    0.62850    0.13318    1.000
    H15      H        0.59300    0.60400    0.07680    1.000
    P16      P        0.62068    0.28362    0.64234    1.000
    O61      O        0.66349    0.33080    0.55974    1.000
    O62      O        0.54128    0.35910    0.66074    1.000
    O63      O        0.67863    0.29220    0.72268    1.000
    O64      O        0.60150    0.12850    0.63318    1.000
    H16      H        0.59300    0.10400    0.57680    1.000
    Zn1      Zn       0.00000    0.50000    0.23681    1.000
    H17      H        0.00000    0.50000    0.48900    1.000
    Zn2      Zn       0.00000    0.00000    0.73681    1.000
    H18      H        0.00000    0.00000    0.98900    1.000
    Zn3      Zn       0.50000    0.50000    0.73681    1.000
    H19      H        0.50000    0.50000    0.98900    1.000
    Zn4      Zn       0.50000    0.00000    0.23681    1.000
    H20      H        0.50000    0.00000    0.48900    1.000
    Zn5      Zn       0.25000    0.75000    0.48681    1.000
    H21      H        0.25000    0.75000    0.73900    1.000
    Zn6      Zn       0.25000    0.25000    0.98681    1.000
    H22      H        0.25000    0.25000    0.23900    1.000
    Zn7      Zn       0.75000    0.75000    0.98681    1.000
    H23      H        0.75000    0.75000    0.23900    1.000
    Zn8      Zn       0.75000    0.25000    0.48681    1.000
    H24      H        0.75000    0.25000    0.73900    1.000
