# CIF file generated by openbabel 3.1.0, see https://openbabel.org
data_I
_chemical_name_common 'AWAHEM_clean'
_cell_length_a 12.7708
_cell_length_b 14.5298
_cell_length_c 18.8587
_cell_angle_alpha 82.784
_cell_angle_beta 72.179
_cell_angle_gamma 79.385
_space_group_name_H-M_alt 'P 1'
_space_group_name_Hall 'P 1'
loop_
    _symmetry_equiv_pos_as_xyz
    x,y,z
loop_
    _atom_site_label
    _atom_site_type_symbol
    _atom_site_fract_x
    _atom_site_fract_y
    _atom_site_fract_z
    _atom_site_occupancy
    U1       U        0.44747    0.42254    0.10254    1.000
    U2       U        0.53863    0.83537    0.10276    1.000
    U3       U        0.28638    0.05132    0.26346    1.000
    U4       U        0.18149    0.83431    0.46400    1.000
    U5       U        0.13028    0.41650    0.42757    1.000
    U6       U        0.55253    0.57746    0.89746    1.000
    U7       U        0.46137    0.16463    0.89724    1.000
    U8       U        0.71362    0.94868    0.73654    1.000
    U9       U        0.81851    0.16569    0.53600    1.000
    U10      U        0.86972    0.58351    0.57243    1.000
    Mn1      Mn       0.61878    0.47025    0.24818    1.000
    Mn2      Mn       0.43715    0.48159    0.43087    1.000
    Mn3      Mn       0.38122    0.52975    0.75182    1.000
    Mn4      Mn       0.56285    0.51841    0.56913    1.000
    P1       P        0.60251    0.57485    0.08495    1.000
    P2       P        0.41353    0.35979    0.30446    1.000
    P3       P        0.35642    0.20032    0.09422    1.000
    P4       P        0.41046    0.82434    0.29830    1.000
    P5       P        0.06904    0.19813    0.38649    1.000
    P6       P        0.82062    0.42557    0.49303    1.000
    P7       P        0.39749    0.42515    0.91505    1.000
    P8       P        0.58647    0.64021    0.69554    1.000
    P9       P        0.64358    0.79968    0.90578    1.000
    P10      P        0.58954    0.17566    0.70170    1.000
    P11      P        0.93096    0.80187    0.61351    1.000
    P12      P        0.17938    0.57443    0.50697    1.000
    H1       H        0.78220    0.57940    0.00850    1.000
    H2       H        0.76760    0.47420    0.04240    1.000
    H3       H        0.47840    0.20160    0.32150    1.000
    H4       H        0.53550    0.26220    0.36000    1.000
    H5       H        0.50310    0.16250    0.14810    1.000
    H6       H        0.55130    0.17030    0.05880    1.000
    H7       H        0.51660    0.78470    0.38050    1.000
    H8       H        0.59460    0.77910    0.29610    1.000
    H9       H        0.11350    0.16680    0.49990    1.000
    H10      H        0.22520    0.16150    0.43140    1.000
    H11      H        0.86050    0.42230    0.36550    1.000
    H12      H        0.81040    0.52660    0.39000    1.000
    H13      H        0.21780    0.42060    0.99150    1.000
    H14      H        0.23240    0.52580    0.95760    1.000
    H15      H        0.52160    0.79840    0.67850    1.000
    H16      H        0.46450    0.73780    0.64000    1.000
    H17      H        0.49690    0.83750    0.85190    1.000
    H18      H        0.44870    0.82970    0.94120    1.000
    H19      H        0.48340    0.21530    0.61950    1.000
    H20      H        0.40540    0.22090    0.70390    1.000
    H21      H        0.88650    0.83320    0.50010    1.000
    H22      H        0.77480    0.83850    0.56860    1.000
    H23      H        0.13950    0.57770    0.63450    1.000
    H24      H        0.18960    0.47340    0.61000    1.000
    C1       C        0.75030    0.54070    0.05450    1.000
    C2       C        0.80420    0.55260    0.11500    1.000
    C3       C        0.51360    0.25870    0.31460    1.000
    C4       C        0.61750    0.24970    0.24780    1.000
    C5       C        0.49320    0.14600    0.10140    1.000
    C6       C        0.50650    0.04200    0.10140    1.000
    C7       C        0.52370    0.76340    0.33110    1.000
    C8       C        0.52680    0.65710    0.33810    1.000
    C9       C        0.14980    0.14350    0.44970    1.000
    C10      C        0.15940    0.03890    0.45510    1.000
    C11      C        0.80150    0.45970    0.40290    1.000
    C12      C        0.68950    0.44710    0.39760    1.000
    C13      C        0.24970    0.45930    0.94550    1.000
    C14      C        0.19580    0.44740    0.88500    1.000
    C15      C        0.48640    0.74130    0.68540    1.000
    C16      C        0.38250    0.75030    0.75220    1.000
    C17      C        0.50680    0.85400    0.89860    1.000
    C18      C        0.49350    0.95800    0.89860    1.000
    C19      C        0.47630    0.23660    0.66890    1.000
    C20      C        0.47320    0.34290    0.66190    1.000
    C21      C        0.85020    0.85650    0.55030    1.000
    C22      C        0.84060    0.96110    0.54490    1.000
    C23      C        0.19850    0.54030    0.59710    1.000
    C24      C        0.31050    0.55290    0.60240    1.000
    O1       O        0.57890    0.67590    0.09990    1.000
    O2       O        0.55350    0.55110    0.02560    1.000
    O3       O        0.55270    0.51000    0.15370    1.000
    O4       O        0.77720    0.50470    0.17590    1.000
    O5       O        0.87490    0.60870    0.10000    1.000
    O6       O        0.40860    0.36780    0.22420    1.000
    O7       O        0.30200    0.34750    0.36180    1.000
    O8       O        0.45650    0.44520    0.31990    1.000
    O9       O        0.65380    0.17130    0.22170    1.000
    O10      O        0.66140    0.32430    0.21870    1.000
    O11      O        0.34520    0.30530    0.10090    1.000
    O12      O        0.27260    0.15340    0.15860    1.000
    O13      O        0.34450    0.17760    0.01750    1.000
    O14      O        0.57790    0.99740    0.05010    1.000
    O15      O        0.44190    0.99590    0.15450    1.000
    O16      O        0.30190    0.79830    0.35030    1.000
    O17      O        0.42770    0.79730    0.21990    1.000
    O18      O        0.41360    0.92930    0.29880    1.000
    O19      O        0.46160    0.62260    0.39540    1.000
    O20      O        0.59380    0.61060    0.28520    1.000
    O21      O        0.07460    0.30310    0.37820    1.000
    O22      O        0.12400    0.15240    0.31250    1.000
    O23      O        0.94810    0.17820    0.41900    1.000
    O24      O        0.11830    0.99280    0.51370    1.000
    O25      O        0.21150    0.99470    0.39530    1.000
    O26      O        0.80570    0.32480    0.51340    1.000
    O27      O        0.93470    0.44800    0.48930    1.000
    O28      O        0.73980    0.49400    0.54900    1.000
    O29      O        0.60340    0.47080    0.45020    1.000
    O30      O        0.68730    0.41310    0.33960    1.000
    O31      O        0.42110    0.32410    0.90010    1.000
    O32      O        0.44650    0.44890    0.97440    1.000
    O33      O        0.44730    0.49000    0.84630    1.000
    O34      O        0.22280    0.49530    0.82410    1.000
    O35      O        0.12510    0.39130    0.90000    1.000
    O36      O        0.59140    0.63220    0.77580    1.000
    O37      O        0.69800    0.65250    0.63820    1.000
    O38      O        0.54350    0.55480    0.68010    1.000
    O39      O        0.34620    0.82870    0.77830    1.000
    O40      O        0.33860    0.67570    0.78130    1.000
    O41      O        0.65480    0.69470    0.89910    1.000
    O42      O        0.72740    0.84660    0.84140    1.000
    O43      O        0.65550    0.82240    0.98250    1.000
    O44      O        0.42210    0.00260    0.94990    1.000
    O45      O        0.55810    0.00410    0.84550    1.000
    O46      O        0.69810    0.20170    0.64970    1.000
    O47      O        0.57230    0.20270    0.78010    1.000
    O48      O        0.58640    0.07070    0.70120    1.000
    O49      O        0.53840    0.37740    0.60460    1.000
    O50      O        0.40620    0.38940    0.71480    1.000
    O51      O        0.92540    0.69690    0.62180    1.000
    O52      O        0.87600    0.84760    0.68750    1.000
    O53      O        0.05190    0.82180    0.58100    1.000
    O54      O        0.88170    0.00720    0.48630    1.000
    O55      O        0.78850    0.00530    0.60470    1.000
    O56      O        0.19430    0.67520    0.48660    1.000
    O57      O        0.06530    0.55200    0.51070    1.000
    O58      O        0.26020    0.50600    0.45100    1.000
    O59      O        0.39660    0.52920    0.54980    1.000
    O60      O        0.31270    0.58690    0.66040    1.000
