# CIF file generated by openbabel 3.1.0, see https://openbabel.org
data_I
_chemical_name_common 'image0'
_cell_length_a 16.598
_cell_length_b 16.643
_cell_length_c 22.494
_cell_angle_alpha 90
_cell_angle_beta 90
_cell_angle_gamma 90
_space_group_name_H-M_alt 'P 1'
_space_group_name_Hall 'P 1'
loop_
    _symmetry_equiv_pos_as_xyz
    x,y,z
loop_
    _atom_site_label
    _atom_site_type_symbol
    _atom_site_fract_x
    _atom_site_fract_y
    _atom_site_fract_z
    _atom_site_occupancy
    O1       O        0.91750    0.41520    0.54910    1.000
    C1       C        0.79740    0.29900    0.55170    1.000
    H1       H        0.81590    0.32000    0.58860    1.000
    C2       C        0.74080    0.24160    0.55100    1.000
    H2       H        0.72060    0.22230    0.58780    1.000
    N1       N        0.94850    0.43800    0.93180    1.000
    C3       C        0.05770    0.46300    0.68590    1.000
    H3       H        0.11060    0.45740    0.67040    1.000
    C4       C        0.03690    0.43380    0.73960    1.000
    H4       H        0.04520    0.38160    0.75550    1.000
    C5       C        0.96200    0.44800    0.87300    1.000
    C6       C        0.90300    0.40400    0.84000    1.000
    H5       H        0.89510    0.40580    0.79810    1.000
    C7       C        0.86000    0.36100    0.87960    1.000
    H6       H        0.81730    0.32460    0.87040    1.000
    C8       C        0.88900    0.38000    0.93910    1.000
    O2       O        0.08250    0.58480    0.54910    1.000
    C9       C        0.20260    0.70100    0.55170    1.000
    H7       H        0.18410    0.68000    0.58860    1.000
    C10      C        0.25920    0.75840    0.55100    1.000
    H8       H        0.27940    0.77770    0.58780    1.000
    N2       N        0.05150    0.56200    0.93180    1.000
    C11      C        0.94230    0.53700    0.68590    1.000
    H9       H        0.88940    0.54260    0.67040    1.000
    C12      C        0.96310    0.56620    0.73960    1.000
    H10      H        0.95480    0.61840    0.75550    1.000
    C13      C        0.03800    0.55200    0.87300    1.000
    C14      C        0.09700    0.59600    0.84000    1.000
    H11      H        0.10490    0.59420    0.79810    1.000
    C15      C        0.14000    0.63900    0.87960    1.000
    H12      H        0.18270    0.67540    0.87040    1.000
    C16      C        0.11100    0.62000    0.93910    1.000
    O3       O        0.08250    0.41520    0.45090    1.000
    C17      C        0.20260    0.29900    0.44830    1.000
    H13      H        0.18410    0.32000    0.41140    1.000
    C18      C        0.25920    0.24160    0.44900    1.000
    H14      H        0.27940    0.22230    0.41220    1.000
    N3       N        0.05150    0.43800    0.06820    1.000
    C19      C        0.94230    0.46300    0.31410    1.000
    H15      H        0.88940    0.45740    0.32960    1.000
    C20      C        0.96310    0.43380    0.26040    1.000
    H16      H        0.95480    0.38160    0.24450    1.000
    C21      C        0.03800    0.44800    0.12700    1.000
    C22      C        0.09700    0.40400    0.16000    1.000
    H17      H        0.10490    0.40580    0.20190    1.000
    C23      C        0.14000    0.36100    0.12040    1.000
    H18      H        0.18270    0.32460    0.12960    1.000
    C24      C        0.11100    0.38000    0.06090    1.000
    O4       O        0.91750    0.58480    0.45090    1.000
    C25      C        0.79740    0.70100    0.44830    1.000
    H19      H        0.81590    0.68000    0.41140    1.000
    C26      C        0.74080    0.75840    0.44900    1.000
    H20      H        0.72060    0.77770    0.41220    1.000
    N4       N        0.94850    0.56200    0.06820    1.000
    C27      C        0.05770    0.53700    0.31410    1.000
    H21      H        0.11060    0.54260    0.32960    1.000
    C28      C        0.03690    0.56620    0.26040    1.000
    H22      H        0.04520    0.61840    0.24450    1.000
    C29      C        0.96200    0.55200    0.12700    1.000
    C30      C        0.90300    0.59600    0.16000    1.000
    H23      H        0.89510    0.59420    0.20190    1.000
    C31      C        0.86000    0.63900    0.12040    1.000
    H24      H        0.81730    0.67540    0.12960    1.000
    C32      C        0.88900    0.62000    0.06090    1.000
    O5       O        0.08250    0.58480    0.45090    1.000
    C33      C        0.20260    0.70100    0.44830    1.000
    H25      H        0.18410    0.68000    0.41140    1.000
    C34      C        0.25920    0.75840    0.44900    1.000
    H26      H        0.27940    0.77770    0.41220    1.000
    N5       N        0.05150    0.56200    0.06820    1.000
    C35      C        0.94230    0.53700    0.31410    1.000
    H27      H        0.88940    0.54260    0.32960    1.000
    C36      C        0.96310    0.56620    0.26040    1.000
    H28      H        0.95480    0.61840    0.24450    1.000
    C37      C        0.03800    0.55200    0.12700    1.000
    C38      C        0.09700    0.59600    0.16000    1.000
    H29      H        0.10490    0.59420    0.20190    1.000
    C39      C        0.14000    0.63900    0.12040    1.000
    H30      H        0.18270    0.67540    0.12960    1.000
    C40      C        0.11100    0.62000    0.06090    1.000
    O6       O        0.91750    0.41520    0.45090    1.000
    C41      C        0.79740    0.29900    0.44830    1.000
    H31      H        0.81590    0.32000    0.41140    1.000
    C42      C        0.74080    0.24160    0.44900    1.000
    H32      H        0.72060    0.22230    0.41220    1.000
    N6       N        0.94850    0.43800    0.06820    1.000
    C43      C        0.05770    0.46300    0.31410    1.000
    H33      H        0.11060    0.45740    0.32960    1.000
    C44      C        0.03690    0.43380    0.26040    1.000
    H34      H        0.04520    0.38160    0.24450    1.000
    C45      C        0.96200    0.44800    0.12700    1.000
    C46      C        0.90300    0.40400    0.16000    1.000
    H35      H        0.89510    0.40580    0.20190    1.000
    C47      C        0.86000    0.36100    0.12040    1.000
    H36      H        0.81730    0.32460    0.12960    1.000
    C48      C        0.88900    0.38000    0.06090    1.000
    O7       O        0.91750    0.58480    0.54910    1.000
    C49      C        0.79740    0.70100    0.55170    1.000
    H37      H        0.81590    0.68000    0.58860    1.000
    C50      C        0.74080    0.75840    0.55100    1.000
    H38      H        0.72060    0.77770    0.58780    1.000
    N7       N        0.94850    0.56200    0.93180    1.000
    C51      C        0.05770    0.53700    0.68590    1.000
    H39      H        0.11060    0.54260    0.67040    1.000
    C52      C        0.03690    0.56620    0.73960    1.000
    H40      H        0.04520    0.61840    0.75550    1.000
    C53      C        0.96200    0.55200    0.87300    1.000
    C54      C        0.90300    0.59600    0.84000    1.000
    H41      H        0.89510    0.59420    0.79810    1.000
    C55      C        0.86000    0.63900    0.87960    1.000
    H42      H        0.81730    0.67540    0.87040    1.000
    C56      C        0.88900    0.62000    0.93910    1.000
    O8       O        0.08250    0.41520    0.54910    1.000
    C57      C        0.20260    0.29900    0.55170    1.000
    H43      H        0.18410    0.32000    0.58860    1.000
    C58      C        0.25920    0.24160    0.55100    1.000
    H44      H        0.27940    0.22230    0.58780    1.000
    N8       N        0.05150    0.43800    0.93180    1.000
    C59      C        0.94230    0.46300    0.68590    1.000
    H45      H        0.88940    0.45740    0.67040    1.000
    C60      C        0.96310    0.43380    0.73960    1.000
    H46      H        0.95480    0.38160    0.75550    1.000
    C61      C        0.03800    0.44800    0.87300    1.000
    C62      C        0.09700    0.40400    0.84000    1.000
    H47      H        0.10490    0.40580    0.79810    1.000
    C63      C        0.14000    0.36100    0.87960    1.000
    H48      H        0.18270    0.32460    0.87040    1.000
    C64      C        0.11100    0.38000    0.93910    1.000
    Zn1      Zn       0.00000    0.50000    0.56530    1.000
    N9       N        0.00000    0.50000    0.65640    1.000
    C65      C        0.00000    0.50000    0.76540    1.000
    C66      C        0.00000    0.50000    0.83250    1.000
    Zn2      Zn       0.00000    0.50000    0.43470    1.000
    N10      N        0.00000    0.50000    0.34360    1.000
    C67      C        0.00000    0.50000    0.23460    1.000
    C68      C        0.00000    0.50000    0.16750    1.000
    Zn3      Zn       0.50000    0.00000    0.50000    1.000
    N11      N        0.50000    0.11400    0.50000    1.000
    N12      N        0.50000    0.88600    0.50000    1.000
    N13      N        0.62060    0.00000    0.50000    1.000
    N14      N        0.37940    0.00000    0.50000    1.000
    C69      C        0.89380    0.39330    0.50000    1.000
    C70      C        0.82860    0.32740    0.50000    1.000
    C71      C        0.71120    0.20980    0.50000    1.000
    C72      C        0.64730    0.14970    0.50000    1.000
    C73      C        0.67100    0.06570    0.50000    1.000
    C74      C        0.75180    0.04050    0.50000    1.000
    H49      H        0.79790    0.07430    0.50000    1.000
    C75      C        0.56830    0.17310    0.50000    1.000
    C76      C        0.54130    0.25250    0.50000    1.000
    H50      H        0.57470    0.29890    0.50000    1.000
    C77      C        0.10620    0.60670    0.50000    1.000
    C78      C        0.17140    0.67260    0.50000    1.000
    C79      C        0.28880    0.79020    0.50000    1.000
    C80      C        0.35270    0.85030    0.50000    1.000
    C81      C        0.32900    0.93430    0.50000    1.000
    C82      C        0.24820    0.95950    0.50000    1.000
    H51      H        0.20210    0.92570    0.50000    1.000
    C83      C        0.43170    0.82690    0.50000    1.000
    C84      C        0.45870    0.74750    0.50000    1.000
    H52      H        0.42530    0.70110    0.50000    1.000
    C85      C        0.10620    0.39330    0.50000    1.000
    C86      C        0.17140    0.32740    0.50000    1.000
    C87      C        0.28880    0.20980    0.50000    1.000
    C88      C        0.35270    0.14970    0.50000    1.000
    C89      C        0.32900    0.06570    0.50000    1.000
    C90      C        0.24820    0.04050    0.50000    1.000
    H53      H        0.20210    0.07430    0.50000    1.000
    C91      C        0.43170    0.17310    0.50000    1.000
    C92      C        0.45870    0.25250    0.50000    1.000
    H54      H        0.42530    0.29890    0.50000    1.000
    C93      C        0.89380    0.60670    0.50000    1.000
    C94      C        0.82860    0.67260    0.50000    1.000
    C95      C        0.71120    0.79020    0.50000    1.000
    C96      C        0.64730    0.85030    0.50000    1.000
    C97      C        0.67100    0.93430    0.50000    1.000
    C98      C        0.75180    0.95950    0.50000    1.000
    H55      H        0.79790    0.92570    0.50000    1.000
    C99      C        0.56830    0.82690    0.50000    1.000
    C100     C        0.54130    0.74750    0.50000    1.000
    H56      H        0.57470    0.70110    0.50000    1.000
    Zn4      Zn       0.00000    0.50000    0.00000    1.000
    C101     C        0.87900    0.36400    0.00000    1.000
    C102     C        0.81400    0.30040    0.00000    1.000
    C103     C        0.73640    0.33400    0.00000    1.000
    C104     C        0.66810    0.28320    0.00000    1.000
    C105     C        0.67730    0.19920    0.00000    1.000
    C106     C        0.75500    0.16600    0.00000    1.000
    C107     C        0.82300    0.21580    0.00000    1.000
    F1       F        0.72670    0.41300    0.00000    1.000
    F2       F        0.59400    0.31590    0.00000    1.000
    F3       F        0.61230    0.15140    0.00000    1.000
    F4       F        0.76390    0.08600    0.00000    1.000
    F5       F        0.89700    0.18400    0.00000    1.000
    C108     C        0.12100    0.63600    0.00000    1.000
    C109     C        0.18600    0.69960    0.00000    1.000
    C110     C        0.26360    0.66600    0.00000    1.000
    C111     C        0.33190    0.71680    0.00000    1.000
    C112     C        0.32270    0.80080    0.00000    1.000
    C113     C        0.24500    0.83400    0.00000    1.000
    C114     C        0.17700    0.78420    0.00000    1.000
    F6       F        0.27330    0.58700    0.00000    1.000
    F7       F        0.40600    0.68410    0.00000    1.000
    F8       F        0.38770    0.84860    0.00000    1.000
    F9       F        0.23610    0.91400    0.00000    1.000
    F10      F        0.10300    0.81600    0.00000    1.000
    C115     C        0.12100    0.36400    0.00000    1.000
    C116     C        0.18600    0.30040    0.00000    1.000
    C117     C        0.26360    0.33400    0.00000    1.000
    C118     C        0.33190    0.28320    0.00000    1.000
    C119     C        0.32270    0.19920    0.00000    1.000
    C120     C        0.24500    0.16600    0.00000    1.000
    C121     C        0.17700    0.21580    0.00000    1.000
    F11      F        0.27330    0.41300    0.00000    1.000
    F12      F        0.40600    0.31590    0.00000    1.000
    F13      F        0.38770    0.15140    0.00000    1.000
    F14      F        0.23610    0.08600    0.00000    1.000
    F15      F        0.10300    0.18400    0.00000    1.000
    C122     C        0.87900    0.63600    0.00000    1.000
    C123     C        0.81400    0.69960    0.00000    1.000
    C124     C        0.73640    0.66600    0.00000    1.000
    C125     C        0.66810    0.71680    0.00000    1.000
    C126     C        0.67730    0.80080    0.00000    1.000
    C127     C        0.75500    0.83400    0.00000    1.000
    C128     C        0.82300    0.78420    0.00000    1.000
    F16      F        0.72670    0.58700    0.00000    1.000
    F17      F        0.59400    0.68410    0.00000    1.000
    F18      F        0.61230    0.84860    0.00000    1.000
    F19      F        0.76390    0.91400    0.00000    1.000
    F20      F        0.89700    0.81600    0.00000    1.000
