# CIF file generated by openbabel 3.1.0, see https://openbabel.org
data_I
_chemical_name_common 'image0'
_cell_length_a 20.3534
_cell_length_b 20.3534
_cell_length_c 13.9824
_cell_angle_alpha 90
_cell_angle_beta 90
_cell_angle_gamma 90
_space_group_name_H-M_alt 'P 1'
_space_group_name_Hall 'P 1'
loop_
    _symmetry_equiv_pos_as_xyz
    x,y,z
loop_
    _atom_site_label
    _atom_site_type_symbol
    _atom_site_fract_x
    _atom_site_fract_y
    _atom_site_fract_z
    _atom_site_occupancy
    N1       N        0.52420    0.34450    0.07540    1.000
    N2       N        0.40240    0.48100    0.19370    1.000
    C1       C        0.51630    0.39680    0.04870    1.000
    C2       C        0.43460    0.48760    0.12940    1.000
    N3       N        0.02420    0.84450    0.57540    1.000
    N4       N        0.90240    0.98100    0.69370    1.000
    C3       C        0.01630    0.89680    0.54870    1.000
    C4       C        0.93460    0.98760    0.62940    1.000
    N5       N        0.97580    0.15550    0.57540    1.000
    N6       N        0.09760    0.01900    0.69370    1.000
    C5       C        0.98370    0.10320    0.54870    1.000
    C6       C        0.06540    0.01240    0.62940    1.000
    N7       N        0.47580    0.65550    0.07540    1.000
    N8       N        0.59760    0.51900    0.19370    1.000
    C7       C        0.48370    0.60320    0.04870    1.000
    C8       C        0.56540    0.51240    0.12940    1.000
    N9       N        0.65550    0.02420    0.32540    1.000
    N10      N        0.51900    0.90240    0.44370    1.000
    C9       C        0.60320    0.01630    0.29870    1.000
    C10      C        0.51240    0.93460    0.37940    1.000
    N11      N        0.15550    0.52420    0.82540    1.000
    N12      N        0.01900    0.40240    0.94370    1.000
    C11      C        0.10320    0.51630    0.79870    1.000
    C12      C        0.01240    0.43460    0.87940    1.000
    N13      N        0.84450    0.47580    0.82540    1.000
    N14      N        0.98100    0.59760    0.94370    1.000
    C13      C        0.89680    0.48370    0.79870    1.000
    C14      C        0.98760    0.56540    0.87940    1.000
    N15      N        0.34450    0.97580    0.32540    1.000
    N16      N        0.48100    0.09760    0.44370    1.000
    C15      C        0.39680    0.98370    0.29870    1.000
    C16      C        0.48760    0.06540    0.37940    1.000
    N17      N        0.97580    0.34450    0.67460    1.000
    N18      N        0.09760    0.48100    0.55630    1.000
    C17      C        0.98370    0.39680    0.70130    1.000
    C18      C        0.06540    0.48760    0.62060    1.000
    N19      N        0.47580    0.84450    0.17460    1.000
    N20      N        0.59760    0.98100    0.05630    1.000
    C19      C        0.48370    0.89680    0.20130    1.000
    C20      C        0.56540    0.98760    0.12060    1.000
    N21      N        0.52420    0.15550    0.17460    1.000
    N22      N        0.40240    0.01900    0.05630    1.000
    C21      C        0.51630    0.10320    0.20130    1.000
    C22      C        0.43460    0.01240    0.12060    1.000
    N23      N        0.02420    0.65550    0.67460    1.000
    N24      N        0.90240    0.51900    0.55630    1.000
    C23      C        0.01630    0.60320    0.70130    1.000
    C24      C        0.93460    0.51240    0.62060    1.000
    N25      N        0.84450    0.02420    0.42460    1.000
    N26      N        0.98100    0.90240    0.30630    1.000
    C25      C        0.89680    0.01630    0.45130    1.000
    C26      C        0.98760    0.93460    0.37060    1.000
    N27      N        0.34450    0.52420    0.92460    1.000
    N28      N        0.48100    0.40240    0.80630    1.000
    C27      C        0.39680    0.51630    0.95130    1.000
    C28      C        0.48760    0.43460    0.87060    1.000
    N29      N        0.65550    0.47580    0.92460    1.000
    N30      N        0.51900    0.59760    0.80630    1.000
    C29      C        0.60320    0.48370    0.95130    1.000
    C30      C        0.51240    0.56540    0.87060    1.000
    N31      N        0.15550    0.97580    0.42460    1.000
    N32      N        0.01900    0.09760    0.30630    1.000
    C31      C        0.10320    0.98370    0.45130    1.000
    C32      C        0.01240    0.06540    0.37060    1.000
    Nb1      Nb       0.50000    0.50000    0.00000    1.000
    Nb2      Nb       0.00000    0.00000    0.50000    1.000
    Nb3      Nb       0.50000    0.00000    0.25000    1.000
    Nb4      Nb       0.00000    0.50000    0.75000    1.000
    Zn1      Zn       0.52232    0.25000    0.12500    1.000
    Zn2      Zn       0.02232    0.75000    0.62500    1.000
    Zn3      Zn       0.97768    0.25000    0.62500    1.000
    Zn4      Zn       0.47768    0.75000    0.12500    1.000
    Zn5      Zn       0.75000    0.02232    0.37500    1.000
    Zn6      Zn       0.25000    0.52232    0.87500    1.000
    Zn7      Zn       0.75000    0.47768    0.87500    1.000
    Zn8      Zn       0.25000    0.97768    0.37500    1.000
