# CIF file generated by openbabel 3.1.0, see https://openbabel.org
data_I
_chemical_name_common 'image0'
_cell_length_a 18.4448
_cell_length_b 18.4448
_cell_length_c 9.8084
_cell_angle_alpha 90
_cell_angle_beta 90
_cell_angle_gamma 120
_space_group_name_H-M_alt 'P 1'
_space_group_name_Hall 'P 1'
loop_
    _symmetry_equiv_pos_as_xyz
    x,y,z
loop_
    _atom_site_label
    _atom_site_type_symbol
    _atom_site_fract_x
    _atom_site_fract_y
    _atom_site_fract_z
    _atom_site_occupancy
    O1       O        0.56860    0.06230    0.36100    1.000
    O2       O        0.46160    0.68780    0.50440    1.000
    O3       O        0.46710    0.79390    0.61410    1.000
    C1       C        0.47020    0.75940    0.50450    1.000
    C2       C        0.48480    0.80520    0.37290    1.000
    C3       C        0.50860    0.88910    0.37330    1.000
    H1       H        0.51500    0.91680    0.45550    1.000
    O4       O        0.93770    0.50630    0.36100    1.000
    O5       O        0.31220    0.77380    0.50440    1.000
    O6       O        0.20610    0.67320    0.61410    1.000
    C4       C        0.24060    0.71080    0.50450    1.000
    C5       C        0.19480    0.67960    0.37290    1.000
    C6       C        0.11090    0.61950    0.37330    1.000
    H2       H        0.08320    0.59820    0.45550    1.000
    O7       O        0.49370    0.43140    0.36100    1.000
    O8       O        0.22620    0.53840    0.50440    1.000
    O9       O        0.32680    0.53290    0.61410    1.000
    C7       C        0.28920    0.52980    0.50450    1.000
    C8       C        0.32040    0.51520    0.37290    1.000
    C9       C        0.38050    0.49140    0.37330    1.000
    H3       H        0.40180    0.48500    0.45550    1.000
    O10      O        0.43140    0.93770    0.86100    1.000
    O11      O        0.53840    0.31220    0.00440    1.000
    O12      O        0.53290    0.20610    0.11410    1.000
    C10      C        0.52980    0.24060    0.00450    1.000
    C11      C        0.51520    0.19480    0.87290    1.000
    C12      C        0.49140    0.11090    0.87330    1.000
    H4       H        0.48500    0.08320    0.95550    1.000
    O13      O        0.06230    0.49370    0.86100    1.000
    O14      O        0.68780    0.22620    0.00440    1.000
    O15      O        0.79390    0.32680    0.11410    1.000
    C13      C        0.75940    0.28920    0.00450    1.000
    C14      C        0.80520    0.32040    0.87290    1.000
    C15      C        0.88910    0.38050    0.87330    1.000
    H5       H        0.91680    0.40180    0.95550    1.000
    O16      O        0.50630    0.56860    0.86100    1.000
    O17      O        0.77380    0.46160    0.00440    1.000
    O18      O        0.67320    0.46710    0.11410    1.000
    C16      C        0.71080    0.47020    0.00450    1.000
    C17      C        0.67960    0.48480    0.87290    1.000
    C18      C        0.61950    0.50860    0.87330    1.000
    H6       H        0.59820    0.51500    0.95550    1.000
    O19      O        0.43140    0.93770    0.63900    1.000
    O20      O        0.53840    0.31220    0.49560    1.000
    O21      O        0.53290    0.20610    0.38590    1.000
    C19      C        0.52980    0.24060    0.49550    1.000
    C20      C        0.51520    0.19480    0.62710    1.000
    C21      C        0.49140    0.11090    0.62670    1.000
    H7       H        0.48500    0.08320    0.54450    1.000
    O22      O        0.06230    0.49370    0.63900    1.000
    O23      O        0.68780    0.22620    0.49560    1.000
    O24      O        0.79390    0.32680    0.38590    1.000
    C22      C        0.75940    0.28920    0.49550    1.000
    C23      C        0.80520    0.32040    0.62710    1.000
    C24      C        0.88910    0.38050    0.62670    1.000
    H8       H        0.91680    0.40180    0.54450    1.000
    O25      O        0.50630    0.56860    0.63900    1.000
    O26      O        0.77380    0.46160    0.49560    1.000
    O27      O        0.67320    0.46710    0.38590    1.000
    C25      C        0.71080    0.47020    0.49550    1.000
    C26      C        0.67960    0.48480    0.62710    1.000
    C27      C        0.61950    0.50860    0.62670    1.000
    H9       H        0.59820    0.51500    0.54450    1.000
    O28      O        0.56860    0.06230    0.13900    1.000
    O29      O        0.46160    0.68780    0.99560    1.000
    O30      O        0.46710    0.79390    0.88590    1.000
    C28      C        0.47020    0.75940    0.99550    1.000
    C29      C        0.48480    0.80520    0.12710    1.000
    C30      C        0.50860    0.88910    0.12670    1.000
    H10      H        0.51500    0.91680    0.04450    1.000
    O31      O        0.93770    0.50630    0.13900    1.000
    O32      O        0.31220    0.77380    0.99560    1.000
    O33      O        0.20610    0.67320    0.88590    1.000
    C31      C        0.24060    0.71080    0.99550    1.000
    C32      C        0.19480    0.67960    0.12710    1.000
    C33      C        0.11090    0.61950    0.12670    1.000
    H11      H        0.08320    0.59820    0.04450    1.000
    O34      O        0.49370    0.43140    0.13900    1.000
    O35      O        0.22620    0.53840    0.99560    1.000
    O36      O        0.32680    0.53290    0.88590    1.000
    C34      C        0.28920    0.52980    0.99550    1.000
    C35      C        0.32040    0.51520    0.12710    1.000
    C36      C        0.38050    0.49140    0.12670    1.000
    H12      H        0.40180    0.48500    0.04450    1.000
    Th1      Th       0.64617    0.20201    0.25000    1.000
    C37      C        0.52320    0.93240    0.25000    1.000
    C38      C        0.55380    0.02280    0.25000    1.000
    C39      C        0.47340    0.76330    0.25000    1.000
    H13      H        0.45810    0.70700    0.25000    1.000
    Th2      Th       0.79799    0.44416    0.25000    1.000
    C40      C        0.06760    0.59080    0.25000    1.000
    C41      C        0.97720    0.53100    0.25000    1.000
    C42      C        0.23670    0.71010    0.25000    1.000
    H14      H        0.29300    0.75110    0.25000    1.000
    Th3      Th       0.55584    0.35383    0.25000    1.000
    C43      C        0.40920    0.47680    0.25000    1.000
    C44      C        0.46900    0.44620    0.25000    1.000
    C45      C        0.28990    0.52660    0.25000    1.000
    H15      H        0.24890    0.54190    0.25000    1.000
    Th4      Th       0.35383    0.79799    0.75000    1.000
    C46      C        0.47680    0.06760    0.75000    1.000
    C47      C        0.44620    0.97720    0.75000    1.000
    C48      C        0.52660    0.23670    0.75000    1.000
    H16      H        0.54190    0.29300    0.75000    1.000
    Th5      Th       0.20201    0.55584    0.75000    1.000
    C49      C        0.93240    0.40920    0.75000    1.000
    C50      C        0.02280    0.46900    0.75000    1.000
    C51      C        0.76330    0.28990    0.75000    1.000
    H17      H        0.70700    0.24890    0.75000    1.000
    Th6      Th       0.44416    0.64617    0.75000    1.000
    C52      C        0.59080    0.52320    0.75000    1.000
    C53      C        0.53100    0.55380    0.75000    1.000
    C54      C        0.71010    0.47340    0.75000    1.000
    H18      H        0.75110    0.45810    0.75000    1.000
    O37      O        0.66667    0.33333    0.25000    1.000
    O38      O        0.33333    0.66667    0.75000    1.000
