# CIF file generated by openbabel 3.1.0, see https://openbabel.org
data_I
_chemical_name_common 'image0'
_cell_length_a 22.4577
_cell_length_b 11.3406
_cell_length_c 12.0773
_cell_angle_alpha 90
_cell_angle_beta 113.556
_cell_angle_gamma 90
_space_group_name_H-M_alt 'P 1'
_space_group_name_Hall 'P 1'
loop_
    _symmetry_equiv_pos_as_xyz
    x,y,z
loop_
    _atom_site_label
    _atom_site_type_symbol
    _atom_site_fract_x
    _atom_site_fract_y
    _atom_site_fract_z
    _atom_site_occupancy
    C1       C        0.21308    0.21700    0.65389    1.000
    C2       C        0.20904    0.18281    0.77136    1.000
    C3       C        0.24512    0.08700    0.83570    1.000
    H1       H        0.27040    0.04580    0.80370    1.000
    C4       C        0.20668    0.10940    0.98460    1.000
    H2       H        0.20530    0.08400    0.05670    1.000
    C5       C        0.16908    0.20490    0.92610    1.000
    H3       H        0.14290    0.24240    0.95840    1.000
    C6       C        0.17079    0.24443    0.81833    1.000
    C7       C        0.13040    0.35110    0.75689    1.000
    C8       C        0.38154    0.34080    0.68020    1.000
    H4       H        0.35810    0.36640    0.60150    1.000
    C9       C        0.41760    0.42170    0.76480    1.000
    H5       H        0.41780    0.50050    0.74360    1.000
    C10      C        0.45360    0.38510    0.88210    1.000
    C11      C        0.44921    0.26880    0.90880    1.000
    H6       H        0.47140    0.24120    0.98710    1.000
    C12      C        0.41191    0.19370    0.81940    1.000
    H7       H        0.40970    0.11510    0.83910    1.000
    C13      C        0.51580    0.45600    0.97230    1.000
    N1       N        0.24524    0.05153    0.94136    1.000
    N2       N        0.37852    0.22740    0.70542    1.000
    O1       O        0.22977    0.13915    0.59937    1.000
    O2       O        0.19818    0.32015    0.61969    1.000
    O3       O        0.15313    0.44999    0.79510    1.000
    O4       O        0.07585    0.33164    0.67447    1.000
    Cd1      Cd       0.31681    0.09418    0.55701    1.000
    C14      C        0.46370    0.48990    0.98100    1.000
    C15      C        0.71308    0.71700    0.65389    1.000
    C16      C        0.70904    0.68281    0.77136    1.000
    C17      C        0.74512    0.58700    0.83570    1.000
    H8       H        0.77040    0.54580    0.80370    1.000
    C18      C        0.70668    0.60940    0.98460    1.000
    H9       H        0.70530    0.58400    0.05670    1.000
    C19      C        0.66908    0.70490    0.92610    1.000
    H10      H        0.64290    0.74240    0.95840    1.000
    C20      C        0.67079    0.74443    0.81833    1.000
    C21      C        0.63040    0.85110    0.75689    1.000
    C22      C        0.88154    0.84080    0.68020    1.000
    H11      H        0.85810    0.86640    0.60150    1.000
    C23      C        0.91760    0.92170    0.76480    1.000
    H12      H        0.91780    0.00050    0.74360    1.000
    C24      C        0.95360    0.88510    0.88210    1.000
    C25      C        0.94921    0.76880    0.90880    1.000
    H13      H        0.97140    0.74120    0.98710    1.000
    C26      C        0.91191    0.69370    0.81940    1.000
    H14      H        0.90970    0.61510    0.83910    1.000
    C27      C        0.01580    0.95600    0.97230    1.000
    N3       N        0.74524    0.55153    0.94136    1.000
    N4       N        0.87852    0.72740    0.70542    1.000
    O5       O        0.72977    0.63915    0.59937    1.000
    O6       O        0.69818    0.82015    0.61969    1.000
    O7       O        0.65313    0.94999    0.79510    1.000
    O8       O        0.57585    0.83164    0.67447    1.000
    Cd2      Cd       0.81681    0.59418    0.55701    1.000
    C28      C        0.96370    0.98990    0.98100    1.000
    C29      C        0.78692    0.21700    0.84611    1.000
    C30      C        0.79096    0.18281    0.72864    1.000
    C31      C        0.75488    0.08700    0.66430    1.000
    H15      H        0.72960    0.04580    0.69630    1.000
    C32      C        0.79332    0.10940    0.51540    1.000
    H16      H        0.79470    0.08400    0.44330    1.000
    C33      C        0.83092    0.20490    0.57390    1.000
    H17      H        0.85710    0.24240    0.54160    1.000
    C34      C        0.82921    0.24443    0.68167    1.000
    C35      C        0.86960    0.35110    0.74311    1.000
    C36      C        0.61846    0.34080    0.81980    1.000
    H18      H        0.64190    0.36640    0.89850    1.000
    C37      C        0.58240    0.42170    0.73520    1.000
    H19      H        0.58220    0.50050    0.75640    1.000
    C38      C        0.54640    0.38510    0.61790    1.000
    C39      C        0.55079    0.26880    0.59120    1.000
    H20      H        0.52860    0.24120    0.51290    1.000
    C40      C        0.58809    0.19370    0.68060    1.000
    H21      H        0.59030    0.11510    0.66090    1.000
    C41      C        0.48420    0.45600    0.52770    1.000
    N5       N        0.75476    0.05153    0.55864    1.000
    N6       N        0.62148    0.22740    0.79458    1.000
    O9       O        0.77023    0.13915    0.90063    1.000
    O10      O        0.80182    0.32015    0.88031    1.000
    O11      O        0.84687    0.44999    0.70490    1.000
    O12      O        0.92415    0.33164    0.82553    1.000
    Cd3      Cd       0.68319    0.09418    0.94299    1.000
    C42      C        0.53630    0.48990    0.51900    1.000
    C43      C        0.28692    0.71700    0.84611    1.000
    C44      C        0.29096    0.68281    0.72864    1.000
    C45      C        0.25488    0.58700    0.66430    1.000
    H22      H        0.22960    0.54580    0.69630    1.000
    C46      C        0.29332    0.60940    0.51540    1.000
    H23      H        0.29470    0.58400    0.44330    1.000
    C47      C        0.33092    0.70490    0.57390    1.000
    H24      H        0.35710    0.74240    0.54160    1.000
    C48      C        0.32921    0.74443    0.68167    1.000
    C49      C        0.36960    0.85110    0.74311    1.000
    C50      C        0.11846    0.84080    0.81980    1.000
    H25      H        0.14190    0.86640    0.89850    1.000
    C51      C        0.08240    0.92170    0.73520    1.000
    H26      H        0.08220    0.00050    0.75640    1.000
    C52      C        0.04640    0.88510    0.61790    1.000
    C53      C        0.05079    0.76880    0.59120    1.000
    H27      H        0.02860    0.74120    0.51290    1.000
    C54      C        0.08809    0.69370    0.68060    1.000
    H28      H        0.09030    0.61510    0.66090    1.000
    C55      C        0.98420    0.95600    0.52770    1.000
    N7       N        0.25476    0.55153    0.55864    1.000
    N8       N        0.12148    0.72740    0.79458    1.000
    O13      O        0.27023    0.63915    0.90063    1.000
    O14      O        0.30182    0.82015    0.88031    1.000
    O15      O        0.34687    0.94999    0.70490    1.000
    O16      O        0.42415    0.83164    0.82553    1.000
    Cd4      Cd       0.18319    0.59418    0.94299    1.000
    C56      C        0.03630    0.98990    0.51900    1.000
    C57      C        0.78692    0.78300    0.34611    1.000
    C58      C        0.79096    0.81719    0.22864    1.000
    C59      C        0.75488    0.91300    0.16430    1.000
    H29      H        0.72960    0.95420    0.19630    1.000
    C60      C        0.79332    0.89060    0.01540    1.000
    H30      H        0.79470    0.91600    0.94330    1.000
    C61      C        0.83092    0.79510    0.07390    1.000
    H31      H        0.85710    0.75760    0.04160    1.000
    C62      C        0.82921    0.75557    0.18167    1.000
    C63      C        0.86960    0.64890    0.24311    1.000
    C64      C        0.61846    0.65920    0.31980    1.000
    H32      H        0.64190    0.63360    0.39850    1.000
    C65      C        0.58240    0.57830    0.23520    1.000
    H33      H        0.58220    0.49950    0.25640    1.000
    C66      C        0.54640    0.61490    0.11790    1.000
    C67      C        0.55079    0.73120    0.09120    1.000
    H34      H        0.52860    0.75880    0.01290    1.000
    C68      C        0.58809    0.80630    0.18060    1.000
    H35      H        0.59030    0.88490    0.16090    1.000
    C69      C        0.48420    0.54400    0.02770    1.000
    N9       N        0.75476    0.94847    0.05864    1.000
    N10      N        0.62148    0.77260    0.29458    1.000
    O17      O        0.77023    0.86085    0.40063    1.000
    O18      O        0.80182    0.67985    0.38031    1.000
    O19      O        0.84687    0.55001    0.20490    1.000
    O20      O        0.92415    0.66836    0.32553    1.000
    Cd5      Cd       0.68319    0.90582    0.44299    1.000
    C70      C        0.53630    0.51010    0.01900    1.000
    C71      C        0.28692    0.28300    0.34611    1.000
    C72      C        0.29096    0.31719    0.22864    1.000
    C73      C        0.25488    0.41300    0.16430    1.000
    H36      H        0.22960    0.45420    0.19630    1.000
    C74      C        0.29332    0.39060    0.01540    1.000
    H37      H        0.29470    0.41600    0.94330    1.000
    C75      C        0.33092    0.29510    0.07390    1.000
    H38      H        0.35710    0.25760    0.04160    1.000
    C76      C        0.32921    0.25557    0.18167    1.000
    C77      C        0.36960    0.14890    0.24311    1.000
    C78      C        0.11846    0.15920    0.31980    1.000
    H39      H        0.14190    0.13360    0.39850    1.000
    C79      C        0.08240    0.07830    0.23520    1.000
    H40      H        0.08220    0.99950    0.25640    1.000
    C80      C        0.04640    0.11490    0.11790    1.000
    C81      C        0.05079    0.23120    0.09120    1.000
    H41      H        0.02860    0.25880    0.01290    1.000
    C82      C        0.08809    0.30630    0.18060    1.000
    H42      H        0.09030    0.38490    0.16090    1.000
    C83      C        0.98420    0.04400    0.02770    1.000
    N11      N        0.25476    0.44847    0.05864    1.000
    N12      N        0.12148    0.27260    0.29458    1.000
    O21      O        0.27023    0.36085    0.40063    1.000
    O22      O        0.30182    0.17985    0.38031    1.000
    O23      O        0.34687    0.05001    0.20490    1.000
    O24      O        0.42415    0.16836    0.32553    1.000
    Cd6      Cd       0.18319    0.40582    0.44299    1.000
    C84      C        0.03630    0.01010    0.01900    1.000
    C85      C        0.21308    0.78300    0.15389    1.000
    C86      C        0.20904    0.81719    0.27136    1.000
    C87      C        0.24512    0.91300    0.33570    1.000
    H43      H        0.27040    0.95420    0.30370    1.000
    C88      C        0.20668    0.89060    0.48460    1.000
    H44      H        0.20530    0.91600    0.55670    1.000
    C89      C        0.16908    0.79510    0.42610    1.000
    H45      H        0.14290    0.75760    0.45840    1.000
    C90      C        0.17079    0.75557    0.31833    1.000
    C91      C        0.13040    0.64890    0.25689    1.000
    C92      C        0.38154    0.65920    0.18020    1.000
    H46      H        0.35810    0.63360    0.10150    1.000
    C93      C        0.41760    0.57830    0.26480    1.000
    H47      H        0.41780    0.49950    0.24360    1.000
    C94      C        0.45360    0.61490    0.38210    1.000
    C95      C        0.44921    0.73120    0.40880    1.000
    H48      H        0.47140    0.75880    0.48710    1.000
    C96      C        0.41191    0.80630    0.31940    1.000
    H49      H        0.40970    0.88490    0.33910    1.000
    C97      C        0.51580    0.54400    0.47230    1.000
    N13      N        0.24524    0.94847    0.44136    1.000
    N14      N        0.37852    0.77260    0.20542    1.000
    O25      O        0.22977    0.86085    0.09937    1.000
    O26      O        0.19818    0.67985    0.11969    1.000
    O27      O        0.15313    0.55001    0.29510    1.000
    O28      O        0.07585    0.66836    0.17447    1.000
    Cd7      Cd       0.31681    0.90582    0.05701    1.000
    C98      C        0.46370    0.51010    0.48100    1.000
    C99      C        0.71308    0.28300    0.15389    1.000
    C100     C        0.70904    0.31719    0.27136    1.000
    C101     C        0.74512    0.41300    0.33570    1.000
    H50      H        0.77040    0.45420    0.30370    1.000
    C102     C        0.70668    0.39060    0.48460    1.000
    H51      H        0.70530    0.41600    0.55670    1.000
    C103     C        0.66908    0.29510    0.42610    1.000
    H52      H        0.64290    0.25760    0.45840    1.000
    C104     C        0.67079    0.25557    0.31833    1.000
    C105     C        0.63040    0.14890    0.25689    1.000
    C106     C        0.88154    0.15920    0.18020    1.000
    H53      H        0.85810    0.13360    0.10150    1.000
    C107     C        0.91760    0.07830    0.26480    1.000
    H54      H        0.91780    0.99950    0.24360    1.000
    C108     C        0.95360    0.11490    0.38210    1.000
    C109     C        0.94921    0.23120    0.40880    1.000
    H55      H        0.97140    0.25880    0.48710    1.000
    C110     C        0.91191    0.30630    0.31940    1.000
    H56      H        0.90970    0.38490    0.33910    1.000
    C111     C        0.01580    0.04400    0.47230    1.000
    N15      N        0.74524    0.44847    0.44136    1.000
    N16      N        0.87852    0.27260    0.20542    1.000
    O29      O        0.72977    0.36085    0.09937    1.000
    O30      O        0.69818    0.17985    0.11969    1.000
    O31      O        0.65313    0.05001    0.29510    1.000
    O32      O        0.57585    0.16836    0.17447    1.000
    Cd8      Cd       0.81681    0.40582    0.05701    1.000
    C112     C        0.96370    0.01010    0.48100    1.000
