# CIF file generated by openbabel 3.1.0, see https://openbabel.org
data_I
_chemical_name_common 'image0'
_cell_length_a 9.285
_cell_length_b 10.3698
_cell_length_c 11.735
_cell_angle_alpha 96.809
_cell_angle_beta 93.262
_cell_angle_gamma 111.427
_space_group_name_H-M_alt 'P 1'
_space_group_name_Hall 'P 1'
loop_
    _symmetry_equiv_pos_as_xyz
    x,y,z
loop_
    _atom_site_label
    _atom_site_type_symbol
    _atom_site_fract_x
    _atom_site_fract_y
    _atom_site_fract_z
    _atom_site_occupancy
    Ce1      Ce       0.02912    0.54966    0.18168    1.000
    O1       O        0.95100    0.63260    0.00940    1.000
    O2       O        0.87280    0.64910    0.83330    1.000
    O3       O        0.15390    0.79170    0.29910    1.000
    O4       O        0.27000    0.64970    0.33970    1.000
    O5       O        0.77860    0.35290    0.10660    1.000
    O6       O        0.74040    0.33090    0.91300    1.000
    C1       C        0.92300    0.70340    0.93580    1.000
    C2       C        0.95830    0.85500    0.97180    1.000
    C3       C        0.92060    0.93230    0.89370    1.000
    H1       H        0.86700    0.88690    0.82200    1.000
    C4       C        0.03840    0.92460    0.07870    1.000
    H2       H        0.06450    0.87470    0.13180    1.000
    C5       C        0.26120    0.76800    0.35160    1.000
    C6       C        0.38640    0.88910    0.42830    1.000
    C7       C        0.49130    0.86540    0.50320    1.000
    H3       H        0.48620    0.77450    0.50530    1.000
    C8       C        0.39600    0.02390    0.42480    1.000
    H4       H        0.32670    0.04080    0.37390    1.000
    C9       C        0.71610    0.28530    0.00750    1.000
    C10      C        0.60290    0.13900    0.00380    1.000
    C11      C        0.53720    0.09150    0.10190    1.000
    H5       H        0.56180    0.15270    0.17110    1.000
    C12      C        0.56440    0.04600    0.90240    1.000
    H6       H        0.60720    0.07600    0.83590    1.000
    Ce2      Ce       0.97088    0.45034    0.81832    1.000
    O7       O        0.04900    0.36740    0.99060    1.000
    O8       O        0.12720    0.35090    0.16670    1.000
    O9       O        0.84610    0.20830    0.70090    1.000
    O10      O        0.73000    0.35030    0.66030    1.000
    O11      O        0.22140    0.64710    0.89340    1.000
    O12      O        0.25960    0.66910    0.08700    1.000
    C13      C        0.07700    0.29660    0.06420    1.000
    C14      C        0.04170    0.14500    0.02820    1.000
    C15      C        0.07940    0.06770    0.10630    1.000
    H7       H        0.13300    0.11310    0.17800    1.000
    C16      C        0.96160    0.07540    0.92130    1.000
    H8       H        0.93550    0.12530    0.86820    1.000
    C17      C        0.73880    0.23200    0.64840    1.000
    C18      C        0.61360    0.11090    0.57170    1.000
    C19      C        0.50870    0.13460    0.49680    1.000
    H9       H        0.51380    0.22550    0.49470    1.000
    C20      C        0.60400    0.97610    0.57520    1.000
    H10      H        0.67330    0.95920    0.62610    1.000
    C21      C        0.28390    0.71470    0.99250    1.000
    C22      C        0.39710    0.86100    0.99620    1.000
    C23      C        0.46280    0.90850    0.89810    1.000
    H11      H        0.43820    0.84730    0.82890    1.000
    C24      C        0.43560    0.95400    0.09760    1.000
    H12      H        0.39280    0.92400    0.16410    1.000
