# CIF file generated by openbabel 3.1.0, see https://openbabel.org
data_I
_chemical_name_common 'image0'
_cell_length_a 12.8539
_cell_length_b 14.4578
_cell_length_c 30.453
_cell_angle_alpha 90
_cell_angle_beta 96.497
_cell_angle_gamma 90
_space_group_name_H-M_alt 'P 1'
_space_group_name_Hall 'P 1'
loop_
    _symmetry_equiv_pos_as_xyz
    x,y,z
loop_
    _atom_site_label
    _atom_site_type_symbol
    _atom_site_fract_x
    _atom_site_fract_y
    _atom_site_fract_z
    _atom_site_occupancy
    Ni1      Ni       0.87276    0.78238    0.06641    1.000
    Ni2      Ni       0.19672    0.90705    0.11183    1.000
    Ni3      Ni       0.12926    0.70616    0.11907    1.000
    Ni4      Ni       0.97333    0.80990    0.16113    1.000
    O1       O        0.14677    0.79637    0.06652    1.000
    O2       O        0.07542    0.10210    0.89223    1.000
    O3       O        0.97009    0.71444    0.11129    1.000
    H1       H        0.93870    0.65630    0.11980    1.000
    O4       O        0.28879    0.69812    0.13018    1.000
    O5       O        0.00766    0.71096    0.20889    1.000
    O6       O        0.11999    0.62570    0.17397    1.000
    O7       O        0.12734    0.82823    0.15373    1.000
    H2       H        0.17070    0.82350    0.18220    1.000
    O8       O        0.93606    0.01960    0.90828    1.000
    O9       O        0.16740    0.33457    0.97129    1.000
    O10      O        0.98763    0.80313    0.02689    1.000
    O11      O        0.81930    0.78606    0.16834    1.000
    O12      O        0.74457    0.75890    0.09889    1.000
    O13      O        0.33918    0.84726    0.13071    1.000
    N1       N        0.03130    0.41444    0.29302    1.000
    N2       N        0.26190    0.87440    0.94441    1.000
    C1       C        0.64790    0.72810    0.15889    1.000
    N3       N        0.14170    0.58650    0.08277    1.000
    C2       C        0.19610    0.51500    0.10262    1.000
    H3       H        0.22280    0.52090    0.13220    1.000
    N4       N        0.56580    0.63810    0.21166    1.000
    O14      O        0.21670    0.26460    0.03623    1.000
    C3       C        0.10290    0.96030    0.93190    1.000
    C4       C        0.12460    0.49820    0.01592    1.000
    H4       H        0.10100    0.49520    0.98590    1.000
    C5       C        0.46110    0.73200    0.15889    1.000
    C6       C        0.06620    0.91530    0.96661    1.000
    H5       H        0.99800    0.92590    0.97270    1.000
    C7       C        0.98390    0.49580    0.29767    1.000
    H6       H        0.94230    0.50200    0.32060    1.000
    C8       C        0.03300    0.03290    0.90852    1.000
    C9       C        0.08460    0.81390    0.03197    1.000
    C10      C        0.35330    0.76170    0.13828    1.000
    C11      C        0.06130    0.63880    0.20368    1.000
    C12      C        0.99310    0.56980    0.27080    1.000
    H7       H        0.95970    0.62530    0.27580    1.000
    C13      C        0.22940    0.83470    0.98083    1.000
    C14      C        0.74490    0.76010    0.14061    1.000
    C15      C        0.12910    0.85430    0.99276    1.000
    C16      C        0.17700    0.42370    0.03682    1.000
    C17      C        0.05300    0.56150    0.23566    1.000
    C18      C        0.10770    0.57740    0.04003    1.000
    H8       H        0.07100    0.62620    0.02570    1.000
    C19      C        0.65210    0.66600    0.19423    1.000
    C20      C        0.20270    0.93800    0.92100    1.000
    C21      C        0.54990    0.76090    0.14154    1.000
    H9       H        0.54440    0.80240    0.11810    1.000
    C22      C        0.08960    0.40570    0.25931    1.000
    H10      H        0.12300    0.34970    0.25540    1.000
    C23      C        0.10170    0.47700    0.23028    1.000
    H11      H        0.14220    0.46870    0.20720    1.000
    C24      C        0.18850    0.33340    0.01260    1.000
    C25      C        0.24960    0.97850    0.88235    1.000
    H12      H        0.31740    0.95190    0.88060    1.000
    H13      H        0.25640    0.04430    0.88610    1.000
    H14      H        0.20500    0.96540    0.85560    1.000
    C26      C        0.30410    0.76970    0.00583    1.000
    H15      H        0.36860    0.76880    0.99270    1.000
    H16      H        0.27440    0.70870    0.00490    1.000
    H17      H        0.31740    0.78970    0.03600    1.000
    C27      C        0.75370    0.62380    0.21507    1.000
    H18      H        0.73980    0.58380    0.23890    1.000
    H19      H        0.80070    0.67210    0.22630    1.000
    H20      H        0.78510    0.58870    0.19330    1.000
    C28      C        0.21360    0.43380    0.08098    1.000
    H21      H        0.25010    0.38580    0.09610    1.000
    C29      C        0.47100    0.67030    0.19427    1.000
    C30      C        0.37960    0.63960    0.21753    1.000
    H22      H        0.40360    0.59780    0.24100    1.000
    H23      H        0.32910    0.60890    0.19690    1.000
    H24      H        0.34770    0.69260    0.22950    1.000
    Ni5      Ni       0.12724    0.28238    0.43359    1.000
    Ni6      Ni       0.80328    0.40705    0.38817    1.000
    Ni7      Ni       0.87074    0.20616    0.38093    1.000
    Ni8      Ni       0.02667    0.30990    0.33887    1.000
    O15      O        0.85323    0.29637    0.43348    1.000
    O16      O        0.92458    0.60210    0.60777    1.000
    O17      O        0.02991    0.21444    0.38871    1.000
    H25      H        0.06130    0.15630    0.38020    1.000
    O18      O        0.71121    0.19812    0.36982    1.000
    O19      O        0.99234    0.21096    0.29111    1.000
    O20      O        0.88001    0.12570    0.32603    1.000
    O21      O        0.87266    0.32823    0.34627    1.000
    H26      H        0.82930    0.32350    0.31780    1.000
    O22      O        0.06394    0.51960    0.59172    1.000
    O23      O        0.83260    0.83457    0.52871    1.000
    O24      O        0.01237    0.30313    0.47311    1.000
    O25      O        0.18070    0.28606    0.33166    1.000
    O26      O        0.25543    0.25890    0.40111    1.000
    O27      O        0.66082    0.34726    0.36929    1.000
    N5       N        0.96870    0.91444    0.20698    1.000
    N6       N        0.73810    0.37440    0.55559    1.000
    C31      C        0.35210    0.22810    0.34111    1.000
    N7       N        0.85830    0.08650    0.41723    1.000
    C32      C        0.80390    0.01500    0.39738    1.000
    H27      H        0.77720    0.02090    0.36780    1.000
    N8       N        0.43420    0.13810    0.28834    1.000
    O28      O        0.78330    0.76460    0.46377    1.000
    C33      C        0.89710    0.46030    0.56810    1.000
    C34      C        0.87540    0.99820    0.48408    1.000
    H28      H        0.89900    0.99520    0.51410    1.000
    C35      C        0.53890    0.23200    0.34111    1.000
    C36      C        0.93380    0.41530    0.53339    1.000
    H29      H        0.00200    0.42590    0.52730    1.000
    C37      C        0.01610    0.99580    0.20233    1.000
    H30      H        0.05770    0.00200    0.17940    1.000
    C38      C        0.96700    0.53290    0.59148    1.000
    C39      C        0.91540    0.31390    0.46803    1.000
    C40      C        0.64670    0.26170    0.36172    1.000
    C41      C        0.93870    0.13880    0.29632    1.000
    C42      C        0.00690    0.06980    0.22920    1.000
    H31      H        0.04030    0.12530    0.22420    1.000
    C43      C        0.77060    0.33470    0.51917    1.000
    C44      C        0.25510    0.26010    0.35939    1.000
    C45      C        0.87090    0.35430    0.50724    1.000
    C46      C        0.82300    0.92370    0.46318    1.000
    C47      C        0.94700    0.06150    0.26434    1.000
    C48      C        0.89230    0.07740    0.45997    1.000
    H32      H        0.92900    0.12620    0.47430    1.000
    C49      C        0.34790    0.16600    0.30577    1.000
    C50      C        0.79730    0.43800    0.57900    1.000
    C51      C        0.45010    0.26090    0.35846    1.000
    H33      H        0.45560    0.30240    0.38190    1.000
    C52      C        0.91040    0.90570    0.24069    1.000
    H34      H        0.87700    0.84970    0.24460    1.000
    C53      C        0.89830    0.97700    0.26972    1.000
    H35      H        0.85780    0.96870    0.29280    1.000
    C54      C        0.81150    0.83340    0.48740    1.000
    C55      C        0.75040    0.47850    0.61765    1.000
    H36      H        0.68260    0.45190    0.61940    1.000
    H37      H        0.74360    0.54430    0.61390    1.000
    H38      H        0.79500    0.46540    0.64440    1.000
    C56      C        0.69590    0.26970    0.49417    1.000
    H39      H        0.63140    0.26880    0.50730    1.000
    H40      H        0.72560    0.20870    0.49510    1.000
    H41      H        0.68260    0.28970    0.46400    1.000
    C57      C        0.24630    0.12380    0.28493    1.000
    H42      H        0.26020    0.08380    0.26110    1.000
    H43      H        0.19930    0.17210    0.27370    1.000
    H44      H        0.21490    0.08870    0.30670    1.000
    C58      C        0.78640    0.93380    0.41902    1.000
    H45      H        0.74990    0.88580    0.40390    1.000
    C59      C        0.52900    0.17030    0.30573    1.000
    C60      C        0.62040    0.13960    0.28247    1.000
    H46      H        0.59640    0.09780    0.25900    1.000
    H47      H        0.67090    0.10890    0.30310    1.000
    H48      H        0.65230    0.19260    0.27050    1.000
    Ni9      Ni       0.12724    0.21762    0.93359    1.000
    Ni10     Ni       0.80328    0.09295    0.88817    1.000
    Ni11     Ni       0.87074    0.29384    0.88093    1.000
    Ni12     Ni       0.02667    0.19010    0.83887    1.000
    O29      O        0.85323    0.20363    0.93348    1.000
    O30      O        0.92458    0.89790    0.10777    1.000
    O31      O        0.02991    0.28556    0.88871    1.000
    H49      H        0.06130    0.34370    0.88020    1.000
    O32      O        0.71121    0.30188    0.86982    1.000
    O33      O        0.99234    0.28904    0.79111    1.000
    O34      O        0.88001    0.37430    0.82603    1.000
    O35      O        0.87266    0.17177    0.84627    1.000
    H50      H        0.82930    0.17650    0.81780    1.000
    O36      O        0.06394    0.98040    0.09172    1.000
    O37      O        0.83260    0.66543    0.02871    1.000
    O38      O        0.01237    0.19687    0.97311    1.000
    O39      O        0.18070    0.21394    0.83166    1.000
    O40      O        0.25543    0.24110    0.90111    1.000
    O41      O        0.66082    0.15274    0.86929    1.000
    N9       N        0.96870    0.58556    0.70698    1.000
    N10      N        0.73810    0.12560    0.05559    1.000
    C61      C        0.35210    0.27190    0.84111    1.000
    N11      N        0.85830    0.41350    0.91723    1.000
    C62      C        0.80390    0.48500    0.89738    1.000
    H51      H        0.77720    0.47910    0.86780    1.000
    N12      N        0.43420    0.36190    0.78834    1.000
    O42      O        0.78330    0.73540    0.96377    1.000
    C63      C        0.89710    0.03970    0.06810    1.000
    C64      C        0.87540    0.50180    0.98408    1.000
    H52      H        0.89900    0.50480    0.01410    1.000
    C65      C        0.53890    0.26800    0.84111    1.000
    C66      C        0.93380    0.08470    0.03339    1.000
    H53      H        0.00200    0.07410    0.02730    1.000
    C67      C        0.01610    0.50420    0.70233    1.000
    H54      H        0.05770    0.49800    0.67940    1.000
    C68      C        0.96700    0.96710    0.09148    1.000
    C69      C        0.91540    0.18610    0.96803    1.000
    C70      C        0.64670    0.23830    0.86172    1.000
    C71      C        0.93870    0.36120    0.79632    1.000
    C72      C        0.00690    0.43020    0.72920    1.000
    H55      H        0.04030    0.37470    0.72420    1.000
    C73      C        0.77060    0.16530    0.01917    1.000
    C74      C        0.25510    0.23990    0.85939    1.000
    C75      C        0.87090    0.14570    0.00724    1.000
    C76      C        0.82300    0.57630    0.96318    1.000
    C77      C        0.94700    0.43850    0.76434    1.000
    C78      C        0.89230    0.42260    0.95997    1.000
    H56      H        0.92900    0.37380    0.97430    1.000
    C79      C        0.34790    0.33400    0.80577    1.000
    C80      C        0.79730    0.06200    0.07900    1.000
    C81      C        0.45010    0.23910    0.85846    1.000
    H57      H        0.45560    0.19760    0.88190    1.000
    C82      C        0.91040    0.59430    0.74069    1.000
    H58      H        0.87700    0.65030    0.74460    1.000
    C83      C        0.89830    0.52300    0.76972    1.000
    H59      H        0.85780    0.53130    0.79280    1.000
    C84      C        0.81150    0.66660    0.98740    1.000
    C85      C        0.75040    0.02150    0.11765    1.000
    H60      H        0.68260    0.04810    0.11940    1.000
    H61      H        0.74360    0.95570    0.11390    1.000
    H62      H        0.79500    0.03460    0.14440    1.000
    C86      C        0.69590    0.23030    0.99417    1.000
    H63      H        0.63140    0.23120    0.00730    1.000
    H64      H        0.72560    0.29130    0.99510    1.000
    H65      H        0.68260    0.21030    0.96400    1.000
    C87      C        0.24630    0.37620    0.78493    1.000
    H66      H        0.26020    0.41620    0.76110    1.000
    H67      H        0.19930    0.32790    0.77370    1.000
    H68      H        0.21490    0.41130    0.80670    1.000
    C88      C        0.78640    0.56620    0.91902    1.000
    H69      H        0.74990    0.61420    0.90390    1.000
    C89      C        0.52900    0.32970    0.80573    1.000
    C90      C        0.62040    0.36040    0.78247    1.000
    H70      H        0.59640    0.40220    0.75900    1.000
    H71      H        0.67090    0.39110    0.80310    1.000
    H72      H        0.65230    0.30740    0.77050    1.000
    Ni13     Ni       0.87276    0.71762    0.56641    1.000
    Ni14     Ni       0.19672    0.59295    0.61183    1.000
    Ni15     Ni       0.12926    0.79384    0.61907    1.000
    Ni16     Ni       0.97333    0.69010    0.66113    1.000
    O43      O        0.14677    0.70363    0.56652    1.000
    O44      O        0.07542    0.39790    0.39223    1.000
    O45      O        0.97009    0.78556    0.61129    1.000
    H73      H        0.93870    0.84370    0.61980    1.000
    O46      O        0.28879    0.80188    0.63018    1.000
    O47      O        0.00766    0.78904    0.70889    1.000
    O48      O        0.11999    0.87430    0.67397    1.000
    O49      O        0.12734    0.67177    0.65373    1.000
    H74      H        0.17070    0.67650    0.68220    1.000
    O50      O        0.93606    0.48040    0.40828    1.000
    O51      O        0.16740    0.16543    0.47129    1.000
    O52      O        0.98763    0.69687    0.52689    1.000
    O53      O        0.81930    0.71394    0.66834    1.000
    O54      O        0.74457    0.74110    0.59889    1.000
    O55      O        0.33918    0.65274    0.63071    1.000
    N13      N        0.03130    0.08556    0.79302    1.000
    N14      N        0.26190    0.62560    0.44441    1.000
    C91      C        0.64790    0.77190    0.65889    1.000
    N15      N        0.14170    0.91350    0.58277    1.000
    C92      C        0.19610    0.98500    0.60262    1.000
    H75      H        0.22280    0.97910    0.63220    1.000
    N16      N        0.56580    0.86190    0.71166    1.000
    O56      O        0.21670    0.23540    0.53623    1.000
    C93      C        0.10290    0.53970    0.43190    1.000
    C94      C        0.12460    0.00180    0.51592    1.000
    H76      H        0.10100    0.00480    0.48590    1.000
    C95      C        0.46110    0.76800    0.65889    1.000
    C96      C        0.06620    0.58470    0.46661    1.000
    H77      H        0.99800    0.57410    0.47270    1.000
    C97      C        0.98390    0.00420    0.79767    1.000
    H78      H        0.94230    0.99800    0.82060    1.000
    C98      C        0.03300    0.46710    0.40852    1.000
    C99      C        0.08460    0.68610    0.53197    1.000
    C100     C        0.35330    0.73830    0.63828    1.000
    C101     C        0.06130    0.86120    0.70368    1.000
    C102     C        0.99310    0.93020    0.77080    1.000
    H79      H        0.95970    0.87470    0.77580    1.000
    C103     C        0.22940    0.66530    0.48083    1.000
    C104     C        0.74490    0.73990    0.64061    1.000
    C105     C        0.12910    0.64570    0.49276    1.000
    C106     C        0.17700    0.07630    0.53682    1.000
    C107     C        0.05300    0.93850    0.73566    1.000
    C108     C        0.10770    0.92260    0.54003    1.000
    H80      H        0.07100    0.87380    0.52570    1.000
    C109     C        0.65210    0.83400    0.69423    1.000
    C110     C        0.20270    0.56200    0.42100    1.000
    C111     C        0.54990    0.73910    0.64154    1.000
    H81      H        0.54440    0.69760    0.61810    1.000
    C112     C        0.08960    0.09430    0.75931    1.000
    H82      H        0.12300    0.15030    0.75540    1.000
    C113     C        0.10170    0.02300    0.73028    1.000
    H83      H        0.14220    0.03130    0.70720    1.000
    C114     C        0.18850    0.16660    0.51260    1.000
    C115     C        0.24960    0.52150    0.38235    1.000
    H84      H        0.31740    0.54810    0.38060    1.000
    H85      H        0.25640    0.45570    0.38610    1.000
    H86      H        0.20500    0.53460    0.35560    1.000
    C116     C        0.30410    0.73030    0.50583    1.000
    H87      H        0.36860    0.73120    0.49270    1.000
    H88      H        0.27440    0.79130    0.50490    1.000
    H89      H        0.31740    0.71030    0.53600    1.000
    C117     C        0.75370    0.87620    0.71507    1.000
    H90      H        0.73980    0.91620    0.73890    1.000
    H91      H        0.80070    0.82790    0.72630    1.000
    H92      H        0.78510    0.91130    0.69330    1.000
    C118     C        0.21360    0.06620    0.58098    1.000
    H93      H        0.25010    0.11420    0.59610    1.000
    C119     C        0.47100    0.82970    0.69427    1.000
    C120     C        0.37960    0.86040    0.71753    1.000
    H94      H        0.40360    0.90220    0.74100    1.000
    H95      H        0.32910    0.89110    0.69690    1.000
    H96      H        0.34770    0.80740    0.72950    1.000
