# CIF file generated by openbabel 3.1.0, see https://openbabel.org
data_I
_chemical_name_common 'FAFJIH_clean'
_cell_length_a 12.4895
_cell_length_b 12.4895
_cell_length_c 18.254
_cell_angle_alpha 98.7567
_cell_angle_beta 98.7567
_cell_angle_gamma 116.378
_space_group_name_H-M_alt 'P 1'
_space_group_name_Hall 'P 1'
loop_
    _symmetry_equiv_pos_as_xyz
    x,y,z
loop_
    _atom_site_label
    _atom_site_type_symbol
    _atom_site_fract_x
    _atom_site_fract_y
    _atom_site_fract_z
    _atom_site_occupancy
    Zn1      Zn       0.80218    0.65906    0.04091    1.000
    Zn2      Zn       0.34094    0.19782    0.45909    1.000
    Zn3      Zn       0.19782    0.34094    0.95909    1.000
    Zn4      Zn       0.65906    0.80218    0.54091    1.000
    Zn5      Zn       0.24855    0.75145    0.75000    1.000
    Zn6      Zn       0.75145    0.24855    0.25000    1.000
    B7       B        0.71590    0.02950    0.95000    1.000
    B8       B        0.97050    0.28410    0.55000    1.000
    B9       B        0.28410    0.97050    0.05000    1.000
    B10      B        0.02950    0.71590    0.45000    1.000
    H11      H        0.79900    0.96900    0.82000    1.000
    H12      H        0.03600    0.11600    0.83100    1.000
    H13      H        0.95400    0.23800    0.00900    1.000
    H14      H        0.58100    0.70500    0.07200    1.000
    H15      H        0.53600    0.88000    0.03900    1.000
    H16      H        0.83800    0.89600    0.96400    1.000
    H17      H        0.78700    0.06700    0.11800    1.000
    H18      H        0.75300    0.35500    0.11000    1.000
    H19      H        0.70800    0.26800    0.96300    1.000
    H20      H        0.66250    0.12490    0.82160    1.000
    H21      H        0.48200    0.97600    0.72600    1.000
    H22      H        0.51300    0.81700    0.88900    1.000
    H23      H        0.79300    0.53500    0.74000    1.000
    H24      H        0.58300    0.35500    0.87000    1.000
    H25      H        0.73500    0.63900    0.31500    1.000
    H26      H        0.03100    0.20100    0.68000    1.000
    H27      H        0.88400    0.96400    0.66900    1.000
    H28      H        0.76200    0.04600    0.49100    1.000
    H29      H        0.29500    0.41900    0.42800    1.000
    H30      H        0.12000    0.46400    0.46100    1.000
    H31      H        0.10400    0.16200    0.53600    1.000
    H32      H        0.93300    0.21300    0.38200    1.000
    H33      H        0.64500    0.24700    0.39000    1.000
    H34      H        0.73200    0.29200    0.53700    1.000
    H35      H        0.87510    0.33750    0.67840    1.000
    H36      H        0.02400    0.51800    0.77400    1.000
    H37      H        0.18300    0.48700    0.61100    1.000
    H38      H        0.46500    0.20700    0.76000    1.000
    H39      H        0.64500    0.41700    0.63000    1.000
    H40      H        0.36100    0.26500    0.18500    1.000
    H41      H        0.20100    0.03100    0.18000    1.000
    H42      H        0.96400    0.88400    0.16900    1.000
    H43      H        0.04600    0.76200    0.99100    1.000
    H44      H        0.41900    0.29500    0.92800    1.000
    H45      H        0.46400    0.12000    0.96100    1.000
    H46      H        0.16200    0.10400    0.03600    1.000
    H47      H        0.21300    0.93300    0.88200    1.000
    H48      H        0.24700    0.64500    0.89000    1.000
    H49      H        0.29200    0.73200    0.03700    1.000
    H50      H        0.33750    0.87510    0.17840    1.000
    H51      H        0.51800    0.02400    0.27400    1.000
    H52      H        0.48700    0.18300    0.11100    1.000
    H53      H        0.20700    0.46500    0.26000    1.000
    H54      H        0.41700    0.64500    0.13000    1.000
    H55      H        0.26500    0.36100    0.68500    1.000
    H56      H        0.96900    0.79900    0.32000    1.000
    H57      H        0.11600    0.03600    0.33100    1.000
    H58      H        0.23800    0.95400    0.50900    1.000
    H59      H        0.70500    0.58100    0.57200    1.000
    H60      H        0.88000    0.53600    0.53900    1.000
    H61      H        0.89600    0.83800    0.46400    1.000
    H62      H        0.06700    0.78700    0.61800    1.000
    H63      H        0.35500    0.75300    0.61000    1.000
    H64      H        0.26800    0.70800    0.46300    1.000
    H65      H        0.12490    0.66250    0.32160    1.000
    H66      H        0.97600    0.48200    0.22600    1.000
    H67      H        0.81700    0.51300    0.38900    1.000
    H68      H        0.53500    0.79300    0.24000    1.000
    H69      H        0.35500    0.58300    0.37000    1.000
    H70      H        0.63900    0.73500    0.81500    1.000
    C71      C        0.85810    0.03410    0.85540    1.000
    C72      C        0.97370    0.11450    0.85480    1.000
    C73      C        0.93910    0.18770    0.96040    1.000
    C74      C        0.62260    0.76120    0.03820    1.000
    C75      C        0.60450    0.85230    0.01930    1.000
    C76      C        0.76370    0.85610    0.98080    1.000
    C77      C        0.75730    0.13310    0.09230    1.000
    C78      C        0.75600    0.30260    0.08700    1.000
    C79      C        0.72130    0.23610    0.01310    1.000
    C80      C        0.60140    0.04780    0.82240    1.000
    C81      C        0.49630    0.97810    0.76920    1.000
    C82      C        0.49730    0.88150    0.85550    1.000
    C83      C        0.79340    0.55160    0.89080    1.000
    C84      C        0.73040    0.47460    0.74660    1.000
    C85      C        0.70830    0.45530    0.81660    1.000
    C86      C        0.60720    0.35180    0.81950    1.000
    C87      C        0.71830    0.61330    0.17250    1.000
    C88      C        0.62890    0.52890    0.21220    1.000
    C89      C        0.65140    0.55980    0.29220    1.000
    C90      C        0.52130    0.42570    0.16930    1.000
    C91      C        0.96590    0.14190    0.64460    1.000
    C92      C        0.88550    0.02630    0.64520    1.000
    C93      C        0.81230    0.06090    0.53960    1.000
    C94      C        0.23880    0.37740    0.46180    1.000
    C95      C        0.14770    0.39550    0.48070    1.000
    C96      C        0.14390    0.23630    0.51920    1.000
    C97      C        0.86690    0.24270    0.40770    1.000
    C98      C        0.69740    0.24400    0.41300    1.000
    C99      C        0.76390    0.27870    0.48690    1.000
    C100     C        0.95220    0.39860    0.67760    1.000
    C101     C        0.02190    0.50370    0.73080    1.000
    C102     C        0.11850    0.50270    0.64450    1.000
    C103     C        0.44840    0.20660    0.60920    1.000
    C104     C        0.52540    0.26960    0.75340    1.000
    C105     C        0.54470    0.29170    0.68340    1.000
    C106     C        0.64820    0.39280    0.68050    1.000
    C107     C        0.38670    0.28170    0.32750    1.000
    C108     C        0.47110    0.37110    0.28780    1.000
    C109     C        0.44020    0.34860    0.20780    1.000
    C110     C        0.57430    0.47870    0.33070    1.000
    C111     C        0.14190    0.96590    0.14460    1.000
    C112     C        0.02630    0.88550    0.14520    1.000
    C113     C        0.06090    0.81230    0.03960    1.000
    C114     C        0.37740    0.23880    0.96180    1.000
    C115     C        0.39550    0.14770    0.98070    1.000
    C116     C        0.23630    0.14390    0.01920    1.000
    C117     C        0.24270    0.86690    0.90770    1.000
    C118     C        0.24400    0.69740    0.91300    1.000
    C119     C        0.27870    0.76390    0.98690    1.000
    C120     C        0.39860    0.95220    0.17760    1.000
    C121     C        0.50370    0.02190    0.23080    1.000
    C122     C        0.50270    0.11850    0.14450    1.000
    C123     C        0.20660    0.44840    0.10920    1.000
    C124     C        0.26960    0.52540    0.25340    1.000
    C125     C        0.29170    0.54470    0.18340    1.000
    C126     C        0.39280    0.64820    0.18050    1.000
    C127     C        0.28170    0.38670    0.82750    1.000
    C128     C        0.37110    0.47110    0.78780    1.000
    C129     C        0.34860    0.44020    0.70780    1.000
    C130     C        0.47870    0.57430    0.83070    1.000
    C131     C        0.03410    0.85810    0.35540    1.000
    C132     C        0.11450    0.97370    0.35480    1.000
    C133     C        0.18770    0.93910    0.46040    1.000
    C134     C        0.76120    0.62260    0.53820    1.000
    C135     C        0.85230    0.60450    0.51930    1.000
    C136     C        0.85610    0.76370    0.48080    1.000
    C137     C        0.13310    0.75730    0.59230    1.000
    C138     C        0.30260    0.75600    0.58700    1.000
    C139     C        0.23610    0.72130    0.51310    1.000
    C140     C        0.04780    0.60140    0.32240    1.000
    C141     C        0.97810    0.49630    0.26920    1.000
    C142     C        0.88150    0.49730    0.35550    1.000
    C143     C        0.55160    0.79340    0.39080    1.000
    C144     C        0.47460    0.73040    0.24660    1.000
    C145     C        0.45530    0.70830    0.31660    1.000
    C146     C        0.35180    0.60720    0.31950    1.000
    C147     C        0.61330    0.71830    0.67250    1.000
    C148     C        0.52890    0.62890    0.71220    1.000
    C149     C        0.55980    0.65140    0.79220    1.000
    C150     C        0.42570    0.52130    0.66930    1.000
    N151     N        0.02440    0.21200    0.92060    1.000
    N152     N        0.83450    0.08110    0.92260    1.000
    N153     N        0.72220    0.76200    0.01430    1.000
    N154     N        0.69540    0.91460    0.98220    1.000
    N155     N        0.77340    0.23800    0.13720    1.000
    N156     N        0.72270    0.12870    0.01670    1.000
    N157     N        0.60540    0.98720    0.87920    1.000
    N158     N        0.42860    0.87200    0.78980    1.000
    N159     N        0.78800    0.97560    0.57940    1.000
    N160     N        0.91890    0.16550    0.57740    1.000
    N161     N        0.23800    0.27780    0.48570    1.000
    N162     N        0.08540    0.30460    0.51780    1.000
    N163     N        0.76200    0.22660    0.36280    1.000
    N164     N        0.87130    0.27730    0.48330    1.000
    N165     N        0.01280    0.39460    0.62080    1.000
    N166     N        0.12800    0.57140    0.71020    1.000
    N167     N        0.97560    0.78800    0.07940    1.000
    N168     N        0.16550    0.91890    0.07740    1.000
    N169     N        0.27780    0.23800    0.98570    1.000
    N170     N        0.30460    0.08540    0.01780    1.000
    N171     N        0.22660    0.76200    0.86280    1.000
    N172     N        0.27730    0.87130    0.98330    1.000
    N173     N        0.39460    0.01280    0.12080    1.000
    N174     N        0.57140    0.12800    0.21020    1.000
    N175     N        0.21200    0.02440    0.42060    1.000
    N176     N        0.08110    0.83450    0.42260    1.000
    N177     N        0.76200    0.72220    0.51430    1.000
    N178     N        0.91460    0.69540    0.48220    1.000
    N179     N        0.23800    0.77340    0.63720    1.000
    N180     N        0.12870    0.72270    0.51670    1.000
    N181     N        0.98720    0.60540    0.37920    1.000
    N182     N        0.87200    0.42860    0.28980    1.000
    O183     O        0.87580    0.65040    0.88770    1.000
    O184     O        0.76330    0.52590    0.95370    1.000
    O185     O        0.79390    0.72070    0.20720    1.000
    O186     O        0.70590    0.56210    0.10270    1.000
    O187     O        0.34960    0.12420    0.61230    1.000
    O188     O        0.47410    0.23670    0.54630    1.000
    O189     O        0.27930    0.20610    0.29280    1.000
    O190     O        0.43790    0.29410    0.39730    1.000
    O191     O        0.12420    0.34960    0.11230    1.000
    O192     O        0.23670    0.47410    0.04630    1.000
    O193     O        0.20610    0.27930    0.79280    1.000
    O194     O        0.29410    0.43790    0.89730    1.000
    O195     O        0.65040    0.87580    0.38770    1.000
    O196     O        0.52590    0.76330    0.45370    1.000
    O197     O        0.72070    0.79390    0.70720    1.000
    O198     O        0.56210    0.70590    0.60270    1.000
    H199     H        0.49931    0.40406    0.10415    1.000
    H200     H        0.59594    0.50069    0.39585    1.000
    H201     H        0.50069    0.59594    0.89585    1.000
    H202     H        0.40406    0.49931    0.60415    1.000
