# CIF file generated by openbabel 3.1.0, see https://openbabel.org
data_I
_chemical_name_common 'image0'
_cell_length_a 18.3154
_cell_length_b 11.3943
_cell_length_c 18.8609
_cell_angle_alpha 90
_cell_angle_beta 108.576
_cell_angle_gamma 90
_space_group_name_H-M_alt 'P 1'
_space_group_name_Hall 'P 1'
loop_
    _symmetry_equiv_pos_as_xyz
    x,y,z
loop_
    _atom_site_label
    _atom_site_type_symbol
    _atom_site_fract_x
    _atom_site_fract_y
    _atom_site_fract_z
    _atom_site_occupancy
    C1       C        0.89710    0.83590    0.92860    1.000
    C2       C        0.83040    0.75850    0.89050    1.000
    C3       C        0.79360    0.70140    0.93440    1.000
    H1       H        0.81500    0.70470    0.98620    1.000
    C4       C        0.72630    0.63990    0.90350    1.000
    H2       H        0.70220    0.60360    0.93410    1.000
    C5       C        0.69450    0.63240    0.82610    1.000
    C6       C        0.73260    0.68300    0.78130    1.000
    H3       H        0.71300    0.67410    0.72960    1.000
    C7       C        0.80030    0.74760    0.81270    1.000
    C8       C        0.61810    0.57340    0.79150    1.000
    C9       C        0.88500    0.14890    0.97590    1.000
    C10      C        0.81580    0.20400    0.98820    1.000
    C11      C        0.78950    0.15950    0.04380    1.000
    H4       H        0.81600    0.10400    0.07100    1.000
    C12      C        0.78300    0.30400    0.94600    1.000
    N1       N        0.79980    0.35360    0.89040    1.000
    H5       H        0.83500    0.32200    0.87700    1.000
    H6       H        0.79400    0.42500    0.87700    1.000
    N2       N        0.83300    0.79550    0.76240    1.000
    H7       H        0.80800    0.80400    0.71500    1.000
    H8       H        0.86500    0.85500    0.77500    1.000
    O1       O        0.92136    0.90470    0.88906    1.000
    O2       O        0.92447    0.82930    0.99838    1.000
    O3       O        0.58688    0.52660    0.83554    1.000
    O4       O        0.58991    0.57200    0.72214    1.000
    O5       O        0.92176    0.07220    0.01931    1.000
    O6       O        0.90333    0.18200    0.92017    1.000
    Gd1      Gd       0.00083    0.06582    0.89725    1.000
    C13      C        0.77000    0.29100    0.94200    1.000
    H9       H        0.78210    0.31490    0.90000    1.000
    C14      C        0.39710    0.33590    0.92860    1.000
    C15      C        0.33040    0.25850    0.89050    1.000
    C16      C        0.29360    0.20140    0.93440    1.000
    H10      H        0.31500    0.20470    0.98620    1.000
    C17      C        0.22630    0.13990    0.90350    1.000
    H11      H        0.20220    0.10360    0.93410    1.000
    C18      C        0.19450    0.13240    0.82610    1.000
    C19      C        0.23260    0.18300    0.78130    1.000
    H12      H        0.21300    0.17410    0.72960    1.000
    C20      C        0.30030    0.24760    0.81270    1.000
    C21      C        0.11810    0.07340    0.79150    1.000
    C22      C        0.38500    0.64890    0.97590    1.000
    C23      C        0.31580    0.70400    0.98820    1.000
    C24      C        0.28950    0.65950    0.04380    1.000
    H13      H        0.31600    0.60400    0.07100    1.000
    C25      C        0.28300    0.80400    0.94600    1.000
    N3       N        0.29980    0.85360    0.89040    1.000
    H14      H        0.33500    0.82200    0.87700    1.000
    H15      H        0.29400    0.92500    0.87700    1.000
    N4       N        0.33300    0.29550    0.76240    1.000
    H16      H        0.30800    0.30400    0.71500    1.000
    H17      H        0.36500    0.35500    0.77500    1.000
    O7       O        0.42136    0.40470    0.88906    1.000
    O8       O        0.42447    0.32930    0.99838    1.000
    O9       O        0.08688    0.02660    0.83554    1.000
    O10      O        0.08991    0.07200    0.72214    1.000
    O11      O        0.42176    0.57220    0.01931    1.000
    O12      O        0.40333    0.68200    0.92017    1.000
    Gd2      Gd       0.50083    0.56582    0.89725    1.000
    C26      C        0.27000    0.79100    0.94200    1.000
    H18      H        0.28210    0.81490    0.90000    1.000
    C27      C        0.10290    0.83590    0.57140    1.000
    C28      C        0.16960    0.75850    0.60950    1.000
    C29      C        0.20640    0.70140    0.56560    1.000
    H19      H        0.18500    0.70470    0.51380    1.000
    C30      C        0.27370    0.63990    0.59650    1.000
    H20      H        0.29780    0.60360    0.56590    1.000
    C31      C        0.30550    0.63240    0.67390    1.000
    C32      C        0.26740    0.68300    0.71870    1.000
    H21      H        0.28700    0.67410    0.77040    1.000
    C33      C        0.19970    0.74760    0.68730    1.000
    C34      C        0.38190    0.57340    0.70850    1.000
    C35      C        0.11500    0.14890    0.52410    1.000
    C36      C        0.18420    0.20400    0.51180    1.000
    C37      C        0.21050    0.15950    0.45620    1.000
    H22      H        0.18400    0.10400    0.42900    1.000
    C38      C        0.21700    0.30400    0.55400    1.000
    N5       N        0.20020    0.35360    0.60960    1.000
    H23      H        0.16500    0.32200    0.62300    1.000
    H24      H        0.20600    0.42500    0.62300    1.000
    N6       N        0.16700    0.79550    0.73760    1.000
    H25      H        0.19200    0.80400    0.78500    1.000
    H26      H        0.13500    0.85500    0.72500    1.000
    O13      O        0.07864    0.90470    0.61094    1.000
    O14      O        0.07553    0.82930    0.50162    1.000
    O15      O        0.41312    0.52660    0.66446    1.000
    O16      O        0.41009    0.57200    0.77786    1.000
    O17      O        0.07824    0.07220    0.48069    1.000
    O18      O        0.09667    0.18200    0.57983    1.000
    Gd3      Gd       0.99917    0.06582    0.60275    1.000
    C39      C        0.23000    0.29100    0.55800    1.000
    H27      H        0.21790    0.31490    0.60000    1.000
    C40      C        0.60290    0.33590    0.57140    1.000
    C41      C        0.66960    0.25850    0.60950    1.000
    C42      C        0.70640    0.20140    0.56560    1.000
    H28      H        0.68500    0.20470    0.51380    1.000
    C43      C        0.77370    0.13990    0.59650    1.000
    H29      H        0.79780    0.10360    0.56590    1.000
    C44      C        0.80550    0.13240    0.67390    1.000
    C45      C        0.76740    0.18300    0.71870    1.000
    H30      H        0.78700    0.17410    0.77040    1.000
    C46      C        0.69970    0.24760    0.68730    1.000
    C47      C        0.88190    0.07340    0.70850    1.000
    C48      C        0.61500    0.64890    0.52410    1.000
    C49      C        0.68420    0.70400    0.51180    1.000
    C50      C        0.71050    0.65950    0.45620    1.000
    H31      H        0.68400    0.60400    0.42900    1.000
    C51      C        0.71700    0.80400    0.55400    1.000
    N7       N        0.70020    0.85360    0.60960    1.000
    H32      H        0.66500    0.82200    0.62300    1.000
    H33      H        0.70600    0.92500    0.62300    1.000
    N8       N        0.66700    0.29550    0.73760    1.000
    H34      H        0.69200    0.30400    0.78500    1.000
    H35      H        0.63500    0.35500    0.72500    1.000
    O19      O        0.57864    0.40470    0.61094    1.000
    O20      O        0.57553    0.32930    0.50162    1.000
    O21      O        0.91312    0.02660    0.66446    1.000
    O22      O        0.91009    0.07200    0.77786    1.000
    O23      O        0.57824    0.57220    0.48069    1.000
    O24      O        0.59667    0.68200    0.57983    1.000
    Gd4      Gd       0.49917    0.56582    0.60275    1.000
    C52      C        0.73000    0.79100    0.55800    1.000
    H36      H        0.71790    0.81490    0.60000    1.000
    C53      C        0.10290    0.16410    0.07140    1.000
    C54      C        0.16960    0.24150    0.10950    1.000
    C55      C        0.20640    0.29860    0.06560    1.000
    H37      H        0.18500    0.29530    0.01380    1.000
    C56      C        0.27370    0.36010    0.09650    1.000
    H38      H        0.29780    0.39640    0.06590    1.000
    C57      C        0.30550    0.36760    0.17390    1.000
    C58      C        0.26740    0.31700    0.21870    1.000
    H39      H        0.28700    0.32590    0.27040    1.000
    C59      C        0.19970    0.25240    0.18730    1.000
    C60      C        0.38190    0.42660    0.20850    1.000
    C61      C        0.11500    0.85110    0.02410    1.000
    C62      C        0.18420    0.79600    0.01180    1.000
    C63      C        0.21050    0.84050    0.95620    1.000
    H40      H        0.18400    0.89600    0.92900    1.000
    C64      C        0.21700    0.69600    0.05400    1.000
    N9       N        0.20020    0.64640    0.10960    1.000
    H41      H        0.16500    0.67800    0.12300    1.000
    H42      H        0.20600    0.57500    0.12300    1.000
    N10      N        0.16700    0.20450    0.23760    1.000
    H43      H        0.19200    0.19600    0.28500    1.000
    H44      H        0.13500    0.14500    0.22500    1.000
    O25      O        0.07864    0.09530    0.11094    1.000
    O26      O        0.07553    0.17070    0.00162    1.000
    O27      O        0.41312    0.47340    0.16446    1.000
    O28      O        0.41009    0.42800    0.27786    1.000
    O29      O        0.07824    0.92780    0.98069    1.000
    O30      O        0.09667    0.81800    0.07983    1.000
    Gd5      Gd       0.99917    0.93418    0.10275    1.000
    C65      C        0.23000    0.70900    0.05800    1.000
    H45      H        0.21790    0.68510    0.10000    1.000
    C66      C        0.60290    0.66410    0.07140    1.000
    C67      C        0.66960    0.74150    0.10950    1.000
    C68      C        0.70640    0.79860    0.06560    1.000
    H46      H        0.68500    0.79530    0.01380    1.000
    C69      C        0.77370    0.86010    0.09650    1.000
    H47      H        0.79780    0.89640    0.06590    1.000
    C70      C        0.80550    0.86760    0.17390    1.000
    C71      C        0.76740    0.81700    0.21870    1.000
    H48      H        0.78700    0.82590    0.27040    1.000
    C72      C        0.69970    0.75240    0.18730    1.000
    C73      C        0.88190    0.92660    0.20850    1.000
    C74      C        0.61500    0.35110    0.02410    1.000
    C75      C        0.68420    0.29600    0.01180    1.000
    C76      C        0.71050    0.34050    0.95620    1.000
    H49      H        0.68400    0.39600    0.92900    1.000
    C77      C        0.71700    0.19600    0.05400    1.000
    N11      N        0.70020    0.14640    0.10960    1.000
    H50      H        0.66500    0.17800    0.12300    1.000
    H51      H        0.70600    0.07500    0.12300    1.000
    N12      N        0.66700    0.70450    0.23760    1.000
    H52      H        0.69200    0.69600    0.28500    1.000
    H53      H        0.63500    0.64500    0.22500    1.000
    O31      O        0.57864    0.59530    0.11094    1.000
    O32      O        0.57553    0.67070    0.00162    1.000
    O33      O        0.91312    0.97340    0.16446    1.000
    O34      O        0.91009    0.92800    0.27786    1.000
    O35      O        0.57824    0.42780    0.98069    1.000
    O36      O        0.59667    0.31800    0.07983    1.000
    Gd6      Gd       0.49917    0.43418    0.10275    1.000
    C78      C        0.73000    0.20900    0.05800    1.000
    H54      H        0.71790    0.18510    0.10000    1.000
    C79      C        0.89710    0.16410    0.42860    1.000
    C80      C        0.83040    0.24150    0.39050    1.000
    C81      C        0.79360    0.29860    0.43440    1.000
    H55      H        0.81500    0.29530    0.48620    1.000
    C82      C        0.72630    0.36010    0.40350    1.000
    H56      H        0.70220    0.39640    0.43410    1.000
    C83      C        0.69450    0.36760    0.32610    1.000
    C84      C        0.73260    0.31700    0.28130    1.000
    H57      H        0.71300    0.32590    0.22960    1.000
    C85      C        0.80030    0.25240    0.31270    1.000
    C86      C        0.61810    0.42660    0.29150    1.000
    C87      C        0.88500    0.85110    0.47590    1.000
    C88      C        0.81580    0.79600    0.48820    1.000
    C89      C        0.78950    0.84050    0.54380    1.000
    H58      H        0.81600    0.89600    0.57100    1.000
    C90      C        0.78300    0.69600    0.44600    1.000
    N13      N        0.79980    0.64640    0.39040    1.000
    H59      H        0.83500    0.67800    0.37700    1.000
    H60      H        0.79400    0.57500    0.37700    1.000
    N14      N        0.83300    0.20450    0.26240    1.000
    H61      H        0.80800    0.19600    0.21500    1.000
    H62      H        0.86500    0.14500    0.27500    1.000
    O37      O        0.92136    0.09530    0.38906    1.000
    O38      O        0.92447    0.17070    0.49838    1.000
    O39      O        0.58688    0.47340    0.33554    1.000
    O40      O        0.58991    0.42800    0.22214    1.000
    O41      O        0.92176    0.92780    0.51931    1.000
    O42      O        0.90333    0.81800    0.42017    1.000
    Gd7      Gd       0.00083    0.93418    0.39725    1.000
    C91      C        0.77000    0.70900    0.44200    1.000
    H63      H        0.78210    0.68510    0.40000    1.000
    C92      C        0.39710    0.66410    0.42860    1.000
    C93      C        0.33040    0.74150    0.39050    1.000
    C94      C        0.29360    0.79860    0.43440    1.000
    H64      H        0.31500    0.79530    0.48620    1.000
    C95      C        0.22630    0.86010    0.40350    1.000
    H65      H        0.20220    0.89640    0.43410    1.000
    C96      C        0.19450    0.86760    0.32610    1.000
    C97      C        0.23260    0.81700    0.28130    1.000
    H66      H        0.21300    0.82590    0.22960    1.000
    C98      C        0.30030    0.75240    0.31270    1.000
    C99      C        0.11810    0.92660    0.29150    1.000
    C100     C        0.38500    0.35110    0.47590    1.000
    C101     C        0.31580    0.29600    0.48820    1.000
    C102     C        0.28950    0.34050    0.54380    1.000
    H67      H        0.31600    0.39600    0.57100    1.000
    C103     C        0.28300    0.19600    0.44600    1.000
    N15      N        0.29980    0.14640    0.39040    1.000
    H68      H        0.33500    0.17800    0.37700    1.000
    H69      H        0.29400    0.07500    0.37700    1.000
    N16      N        0.33300    0.70450    0.26240    1.000
    H70      H        0.30800    0.69600    0.21500    1.000
    H71      H        0.36500    0.64500    0.27500    1.000
    O43      O        0.42136    0.59530    0.38906    1.000
    O44      O        0.42447    0.67070    0.49838    1.000
    O45      O        0.08688    0.97340    0.33554    1.000
    O46      O        0.08991    0.92800    0.22214    1.000
    O47      O        0.42176    0.42780    0.51931    1.000
    O48      O        0.40333    0.31800    0.42017    1.000
    Gd8      Gd       0.50083    0.43418    0.39725    1.000
    C104     C        0.27000    0.20900    0.44200    1.000
    H72      H        0.28210    0.18510    0.40000    1.000
