# CIF file generated by openbabel 3.1.0, see https://openbabel.org
data_I
_chemical_name_common 'image0'
_cell_length_a 17.5705
_cell_length_b 18.571
_cell_length_c 13.3355
_cell_angle_alpha 90
_cell_angle_beta 90
_cell_angle_gamma 90
_space_group_name_H-M_alt 'P 1'
_space_group_name_Hall 'P 1'
loop_
    _symmetry_equiv_pos_as_xyz
    x,y,z
loop_
    _atom_site_label
    _atom_site_type_symbol
    _atom_site_fract_x
    _atom_site_fract_y
    _atom_site_fract_z
    _atom_site_occupancy
    O1       O        0.13134    0.99228    0.10883    1.000
    O2       O        0.01238    0.87461    0.99266    1.000
    O3       O        0.90849    0.98340    0.90130    1.000
    O4       O        0.01595    0.08692    0.19380    1.000
    N1       N        0.18454    0.94226    0.09220    1.000
    N2       N        0.96081    0.82292    0.98190    1.000
    N3       N        0.91070    0.96309    0.80650    1.000
    N4       N        0.03602    0.08558    0.28930    1.000
    C1       C        0.25680    0.96360    0.07620    1.000
    H1       H        0.26880    0.01340    0.07450    1.000
    C2       C        0.31280    0.91340    0.06260    1.000
    H2       H        0.36390    0.92890    0.05350    1.000
    C3       C        0.29660    0.84100    0.06190    1.000
    C4       C        0.22070    0.82100    0.07860    1.000
    H3       H        0.20670    0.77150    0.07860    1.000
    C5       C        0.16700    0.87270    0.09470    1.000
    H4       H        0.11600    0.85870    0.10800    1.000
    C6       C        0.98060    0.76170    0.93550    1.000
    H5       H        0.03130    0.75580    0.91230    1.000
    C7       C        0.92900    0.70770    0.92080    1.000
    H6       H        0.94440    0.66440    0.88860    1.000
    C8       C        0.35420    0.78440    0.04730    1.000
    C9       C        0.33630    0.72140    0.99840    1.000
    H7       H        0.28610    0.71480    0.97350    1.000
    C10      C        0.88910    0.83200    0.01540    1.000
    H8       H        0.87520    0.87540    0.04850    1.000
    C11      C        0.96670    0.91970    0.77140    1.000
    H9       H        0.00260    0.89970    0.81680    1.000
    C12      C        0.97210    0.90420    0.67130    1.000
    H10      H        0.01160    0.87350    0.64830    1.000
    C13      C        0.92050    0.93270    0.60260    1.000
    C14      C        0.86040    0.97340    0.64190    1.000
    H11      H        0.82180    0.99120    0.59840    1.000
    C15      C        0.85650    0.98800    0.74310    1.000
    H12      H        0.81550    0.01580    0.76870    1.000
    C16      C        0.00560    0.13343    0.35270    1.000
    H13      H        0.97290    0.17010    0.32780    1.000
    C17      C        0.02120    0.12990    0.45370    1.000
    H14      H        0.99940    0.16450    0.49760    1.000
    C18      C        0.93110    0.92380    0.49300    1.000
    C19      C        0.89780    0.96980    0.42410    1.000
    H15      H        0.86300    0.00550    0.44670    1.000
    C20      C        0.08590    0.03520    0.32310    1.000
    H16      H        0.10950    0.00320    0.27700    1.000
    O5       O        0.86866    0.00772    0.10883    1.000
    O6       O        0.98762    0.12539    0.99266    1.000
    O7       O        0.09151    0.01660    0.90130    1.000
    O8       O        0.98405    0.91308    0.19380    1.000
    N5       N        0.81546    0.05774    0.09220    1.000
    N6       N        0.03919    0.17708    0.98190    1.000
    N7       N        0.08930    0.03691    0.80650    1.000
    N8       N        0.96398    0.91442    0.28930    1.000
    C21      C        0.74320    0.03640    0.07620    1.000
    H17      H        0.73120    0.98660    0.07450    1.000
    C22      C        0.68720    0.08660    0.06260    1.000
    H18      H        0.63610    0.07110    0.05350    1.000
    C23      C        0.70340    0.15900    0.06190    1.000
    C24      C        0.77930    0.17900    0.07860    1.000
    H19      H        0.79330    0.22850    0.07860    1.000
    C25      C        0.83300    0.12730    0.09470    1.000
    H20      H        0.88400    0.14130    0.10800    1.000
    C26      C        0.01940    0.23830    0.93550    1.000
    H21      H        0.96870    0.24420    0.91230    1.000
    C27      C        0.07100    0.29230    0.92080    1.000
    H22      H        0.05560    0.33560    0.88860    1.000
    C28      C        0.64580    0.21560    0.04730    1.000
    C29      C        0.66370    0.27860    0.99840    1.000
    H23      H        0.71390    0.28520    0.97350    1.000
    C30      C        0.11090    0.16800    0.01540    1.000
    H24      H        0.12480    0.12460    0.04850    1.000
    C31      C        0.03330    0.08030    0.77140    1.000
    H25      H        0.99740    0.10030    0.81680    1.000
    C32      C        0.02790    0.09580    0.67130    1.000
    H26      H        0.98840    0.12650    0.64830    1.000
    C33      C        0.07950    0.06730    0.60260    1.000
    C34      C        0.13960    0.02660    0.64190    1.000
    H27      H        0.17820    0.00880    0.59840    1.000
    C35      C        0.14350    0.01200    0.74310    1.000
    H28      H        0.18450    0.98420    0.76870    1.000
    C36      C        0.99440    0.86657    0.35270    1.000
    H29      H        0.02710    0.82990    0.32780    1.000
    C37      C        0.97880    0.87010    0.45370    1.000
    H30      H        0.00060    0.83550    0.49760    1.000
    C38      C        0.06890    0.07620    0.49300    1.000
    C39      C        0.10220    0.03020    0.42410    1.000
    H31      H        0.13700    0.99450    0.44670    1.000
    C40      C        0.91410    0.96480    0.32310    1.000
    H32      H        0.89050    0.99680    0.27700    1.000
    O9       O        0.36866    0.49228    0.89117    1.000
    O10      O        0.48762    0.37461    0.00734    1.000
    O11      O        0.59151    0.48340    0.09870    1.000
    O12      O        0.48405    0.58692    0.80620    1.000
    N9       N        0.31546    0.44226    0.90780    1.000
    N10      N        0.53919    0.32292    0.01810    1.000
    N11      N        0.58930    0.46309    0.19350    1.000
    N12      N        0.46398    0.58558    0.71070    1.000
    C41      C        0.24320    0.46360    0.92380    1.000
    H33      H        0.23120    0.51340    0.92550    1.000
    C42      C        0.18720    0.41340    0.93740    1.000
    H34      H        0.13610    0.42890    0.94650    1.000
    C43      C        0.20340    0.34100    0.93810    1.000
    C44      C        0.27930    0.32100    0.92140    1.000
    H35      H        0.29330    0.27150    0.92140    1.000
    C45      C        0.33300    0.37270    0.90530    1.000
    H36      H        0.38400    0.35870    0.89200    1.000
    C46      C        0.51940    0.26170    0.06450    1.000
    H37      H        0.46870    0.25580    0.08770    1.000
    C47      C        0.57100    0.20770    0.07920    1.000
    H38      H        0.55560    0.16440    0.11140    1.000
    C48      C        0.14580    0.28440    0.95270    1.000
    C49      C        0.16370    0.22140    0.00160    1.000
    H39      H        0.21390    0.21480    0.02650    1.000
    C50      C        0.61090    0.33200    0.98460    1.000
    H40      H        0.62480    0.37540    0.95150    1.000
    C51      C        0.53330    0.41970    0.22860    1.000
    H41      H        0.49740    0.39970    0.18320    1.000
    C52      C        0.52790    0.40420    0.32870    1.000
    H42      H        0.48840    0.37350    0.35170    1.000
    C53      C        0.57950    0.43270    0.39740    1.000
    C54      C        0.63960    0.47340    0.35810    1.000
    H43      H        0.67820    0.49120    0.40160    1.000
    C55      C        0.64350    0.48800    0.25690    1.000
    H44      H        0.68450    0.51580    0.23130    1.000
    C56      C        0.49440    0.63343    0.64730    1.000
    H45      H        0.52710    0.67010    0.67220    1.000
    C57      C        0.47880    0.62990    0.54630    1.000
    H46      H        0.50060    0.66450    0.50240    1.000
    C58      C        0.56890    0.42380    0.50700    1.000
    C59      C        0.60220    0.46980    0.57590    1.000
    H47      H        0.63700    0.50550    0.55330    1.000
    C60      C        0.41410    0.53520    0.67690    1.000
    H48      H        0.39050    0.50320    0.72300    1.000
    O13      O        0.63134    0.50772    0.89117    1.000
    O14      O        0.51238    0.62539    0.00734    1.000
    O15      O        0.40849    0.51660    0.09870    1.000
    O16      O        0.51595    0.41308    0.80620    1.000
    N13      N        0.68454    0.55774    0.90780    1.000
    N14      N        0.46081    0.67708    0.01810    1.000
    N15      N        0.41070    0.53691    0.19350    1.000
    N16      N        0.53602    0.41442    0.71070    1.000
    C61      C        0.75680    0.53640    0.92380    1.000
    H49      H        0.76880    0.48660    0.92550    1.000
    C62      C        0.81280    0.58660    0.93740    1.000
    H50      H        0.86390    0.57110    0.94650    1.000
    C63      C        0.79660    0.65900    0.93810    1.000
    C64      C        0.72070    0.67900    0.92140    1.000
    H51      H        0.70670    0.72850    0.92140    1.000
    C65      C        0.66700    0.62730    0.90530    1.000
    H52      H        0.61600    0.64130    0.89200    1.000
    C66      C        0.48060    0.73830    0.06450    1.000
    H53      H        0.53130    0.74420    0.08770    1.000
    C67      C        0.42900    0.79230    0.07920    1.000
    H54      H        0.44440    0.83560    0.11140    1.000
    C68      C        0.85420    0.71560    0.95270    1.000
    C69      C        0.83630    0.77860    0.00160    1.000
    H55      H        0.78610    0.78520    0.02650    1.000
    C70      C        0.38910    0.66800    0.98460    1.000
    H56      H        0.37520    0.62460    0.95150    1.000
    C71      C        0.46670    0.58030    0.22860    1.000
    H57      H        0.50260    0.60030    0.18320    1.000
    C72      C        0.47210    0.59580    0.32870    1.000
    H58      H        0.51160    0.62650    0.35170    1.000
    C73      C        0.42050    0.56730    0.39740    1.000
    C74      C        0.36040    0.52660    0.35810    1.000
    H59      H        0.32180    0.50880    0.40160    1.000
    C75      C        0.35650    0.51200    0.25690    1.000
    H60      H        0.31550    0.48420    0.23130    1.000
    C76      C        0.50560    0.36657    0.64730    1.000
    H61      H        0.47290    0.32990    0.67220    1.000
    C77      C        0.52120    0.37010    0.54630    1.000
    H62      H        0.49940    0.33550    0.50240    1.000
    C78      C        0.43110    0.57620    0.50700    1.000
    C79      C        0.39780    0.53020    0.57590    1.000
    H63      H        0.36300    0.49450    0.55330    1.000
    C80      C        0.58590    0.46480    0.67690    1.000
    H64      H        0.60950    0.49680    0.72300    1.000
    La1      La       0.00000    0.00000    0.04648    1.000
    La2      La       0.50000    0.50000    0.95352    1.000
