# CIF file generated by openbabel 3.1.0, see https://openbabel.org
data_I
_chemical_name_common 'WUNVEH_charged'
_cell_length_a 15.8471
_cell_length_b 15.8471
_cell_length_c 21.767
_cell_angle_alpha 90
_cell_angle_beta 90
_cell_angle_gamma 90
_space_group_name_H-M_alt 'P 1'
_space_group_name_Hall 'P 1'
loop_
    _symmetry_equiv_pos_as_xyz
    x,y,z
loop_
    _atom_site_label
    _atom_site_type_symbol
    _atom_site_fract_x
    _atom_site_fract_y
    _atom_site_fract_z
    _atom_site_occupancy
    Cd1      Cd       0.05986    0.94014    0.25000    1.000
    Cd2      Cd       0.94014    0.05986    0.75000    1.000
    Cd3      Cd       0.55986    0.55986    0.50000    1.000
    Cd4      Cd       0.44014    0.44014    0.00000    1.000
    H1       H        0.38500    0.46310    0.14900    1.000
    H2       H        0.28680    0.41170    0.21550    1.000
    H3       H        0.26310    0.21000    0.10630    1.000
    H4       H        0.35840    0.26860    0.04180    1.000
    H5       H        0.20520    0.34310    0.28170    1.000
    H6       H        0.09040    0.29360    0.33560    1.000
    H7       H        0.99780    0.19880    0.29130    1.000
    H8       H        0.14150    0.19470    0.13980    1.000
    H9       H        0.87860    0.95410    0.04200    1.000
    H10      H        0.76660    0.93130    0.97640    1.000
    H11      H        0.66320    0.03320    0.96580    1.000
    H12      H        0.77520    0.17230    0.09610    1.000
    H13      H        0.59800    0.14790    0.93970    1.000
    H14      H        0.55930    0.33980    0.09230    1.000
    H15      H        0.65170    0.23210    0.10800    1.000
    H16      H        0.50630    0.25790    0.92910    1.000
    H17      H        0.97070    0.25580    0.10830    1.000
    H18      H        0.89990    0.25840    0.15070    1.000
    H19      H        0.61500    0.53690    0.64900    1.000
    H20      H        0.71320    0.58830    0.71550    1.000
    H21      H        0.73690    0.79000    0.60630    1.000
    H22      H        0.64160    0.73140    0.54180    1.000
    H23      H        0.79480    0.65690    0.78170    1.000
    H24      H        0.90960    0.70640    0.83560    1.000
    H25      H        0.00220    0.80120    0.79130    1.000
    H26      H        0.85850    0.80530    0.63980    1.000
    H27      H        0.12140    0.04590    0.54200    1.000
    H28      H        0.23340    0.06870    0.47640    1.000
    H29      H        0.33680    0.96680    0.46580    1.000
    H30      H        0.22480    0.82770    0.59610    1.000
    H31      H        0.40200    0.85210    0.43970    1.000
    H32      H        0.44070    0.66020    0.59230    1.000
    H33      H        0.34830    0.76790    0.60800    1.000
    H34      H        0.49370    0.74210    0.42910    1.000
    H35      H        0.02930    0.74420    0.60830    1.000
    H36      H        0.10010    0.74160    0.65070    1.000
    H37      H        0.03690    0.88500    0.39900    1.000
    H38      H        0.08830    0.78680    0.46550    1.000
    H39      H        0.29000    0.76310    0.35630    1.000
    H40      H        0.23140    0.85840    0.29180    1.000
    H41      H        0.15690    0.70520    0.53170    1.000
    H42      H        0.20640    0.59040    0.58560    1.000
    H43      H        0.30120    0.49780    0.54130    1.000
    H44      H        0.30530    0.64150    0.38980    1.000
    H45      H        0.54590    0.37860    0.29200    1.000
    H46      H        0.56870    0.26660    0.22640    1.000
    H47      H        0.46680    0.16320    0.21580    1.000
    H48      H        0.32770    0.27520    0.34610    1.000
    H49      H        0.35210    0.09800    0.18970    1.000
    H50      H        0.16020    0.05930    0.34230    1.000
    H51      H        0.26790    0.15170    0.35800    1.000
    H52      H        0.24210    0.00630    0.17910    1.000
    H53      H        0.24420    0.47070    0.35830    1.000
    H54      H        0.24160    0.39990    0.40070    1.000
    H55      H        0.96310    0.11500    0.89900    1.000
    H56      H        0.91170    0.21320    0.96550    1.000
    H57      H        0.71000    0.23690    0.85630    1.000
    H58      H        0.76860    0.14160    0.79180    1.000
    H59      H        0.84310    0.29480    0.03170    1.000
    H60      H        0.79360    0.40960    0.08560    1.000
    H61      H        0.69880    0.50220    0.04130    1.000
    H62      H        0.69470    0.35850    0.88980    1.000
    H63      H        0.45410    0.62140    0.79200    1.000
    H64      H        0.43130    0.73340    0.72640    1.000
    H65      H        0.53320    0.83680    0.71580    1.000
    H66      H        0.67230    0.72480    0.84610    1.000
    H67      H        0.64790    0.90200    0.68970    1.000
    H68      H        0.83980    0.94070    0.84230    1.000
    H69      H        0.73210    0.84830    0.85800    1.000
    H70      H        0.75790    0.99370    0.67910    1.000
    H71      H        0.75580    0.52930    0.85830    1.000
    H72      H        0.75840    0.60010    0.90070    1.000
    H73      H        0.11500    0.96310    0.10100    1.000
    H74      H        0.21320    0.91170    0.03450    1.000
    H75      H        0.23690    0.71000    0.14370    1.000
    H76      H        0.14160    0.76860    0.20820    1.000
    H77      H        0.29480    0.84310    0.96830    1.000
    H78      H        0.40960    0.79360    0.91440    1.000
    H79      H        0.50220    0.69880    0.95870    1.000
    H80      H        0.35850    0.69470    0.11020    1.000
    H81      H        0.62140    0.45410    0.20800    1.000
    H82      H        0.73340    0.43130    0.27360    1.000
    H83      H        0.83680    0.53320    0.28420    1.000
    H84      H        0.72480    0.67230    0.15390    1.000
    H85      H        0.90200    0.64790    0.31030    1.000
    H86      H        0.94070    0.83980    0.15770    1.000
    H87      H        0.84830    0.73210    0.14200    1.000
    H88      H        0.99370    0.75790    0.32090    1.000
    H89      H        0.52930    0.75580    0.14170    1.000
    H90      H        0.60010    0.75840    0.09930    1.000
    H91      H        0.88500    0.03690    0.60100    1.000
    H92      H        0.78680    0.08830    0.53450    1.000
    H93      H        0.76310    0.29000    0.64370    1.000
    H94      H        0.85840    0.23140    0.70820    1.000
    H95      H        0.70520    0.15690    0.46830    1.000
    H96      H        0.59040    0.20640    0.41440    1.000
    H97      H        0.49780    0.30120    0.45870    1.000
    H98      H        0.64150    0.30530    0.61020    1.000
    H99      H        0.37860    0.54590    0.70800    1.000
    H100     H        0.26660    0.56870    0.77360    1.000
    H101     H        0.16320    0.46680    0.78420    1.000
    H102     H        0.27520    0.32770    0.65390    1.000
    H103     H        0.09800    0.35210    0.81030    1.000
    H104     H        0.05930    0.16020    0.65770    1.000
    H105     H        0.15170    0.26790    0.64200    1.000
    H106     H        0.00630    0.24210    0.82090    1.000
    H107     H        0.47070    0.24420    0.64170    1.000
    H108     H        0.39990    0.24160    0.59930    1.000
    H109     H        0.46310    0.38500    0.85100    1.000
    H110     H        0.41170    0.28680    0.78450    1.000
    H111     H        0.21000    0.26310    0.89370    1.000
    H112     H        0.26860    0.35840    0.95820    1.000
    H113     H        0.34310    0.20520    0.71830    1.000
    H114     H        0.29360    0.09040    0.66440    1.000
    H115     H        0.19880    0.99780    0.70870    1.000
    H116     H        0.19470    0.14150    0.86020    1.000
    H117     H        0.95410    0.87860    0.95800    1.000
    H118     H        0.93130    0.76660    0.02360    1.000
    H119     H        0.03320    0.66320    0.03420    1.000
    H120     H        0.17230    0.77520    0.90390    1.000
    H121     H        0.14790    0.59800    0.06030    1.000
    H122     H        0.33980    0.55930    0.90770    1.000
    H123     H        0.23210    0.65170    0.89200    1.000
    H124     H        0.25790    0.50630    0.07090    1.000
    H125     H        0.25580    0.97070    0.89170    1.000
    H126     H        0.25840    0.89990    0.84930    1.000
    H127     H        0.53690    0.61500    0.35100    1.000
    H128     H        0.58830    0.71320    0.28450    1.000
    H129     H        0.79000    0.73690    0.39370    1.000
    H130     H        0.73140    0.64160    0.45820    1.000
    H131     H        0.65690    0.79480    0.21830    1.000
    H132     H        0.70640    0.90960    0.16440    1.000
    H133     H        0.80120    0.00220    0.20870    1.000
    H134     H        0.80530    0.85850    0.36020    1.000
    H135     H        0.04590    0.12140    0.45800    1.000
    H136     H        0.06870    0.23340    0.52360    1.000
    H137     H        0.96680    0.33680    0.53420    1.000
    H138     H        0.82770    0.22480    0.40390    1.000
    H139     H        0.85210    0.40200    0.56030    1.000
    H140     H        0.66020    0.44070    0.40770    1.000
    H141     H        0.76790    0.34830    0.39200    1.000
    H142     H        0.74210    0.49370    0.57090    1.000
    H143     H        0.74420    0.02930    0.39170    1.000
    H144     H        0.74160    0.10010    0.34930    1.000
    C1       C        0.35810    0.41260    0.13940    1.000
    C2       C        0.29890    0.38220    0.17970    1.000
    C3       C        0.25650    0.30620    0.16653    1.000
    C4       C        0.28450    0.26330    0.11490    1.000
    C5       C        0.34300    0.29840    0.07680    1.000
    C6       C        0.18500    0.27540    0.20401    1.000
    C7       C        0.16910    0.30410    0.26364    1.000
    C8       C        0.10000    0.27460    0.29580    1.000
    C9       C        0.04500    0.21710    0.26968    1.000
    C10      C        0.06060    0.18720    0.21090    1.000
    C11      C        0.13060    0.21580    0.17890    1.000
    C12      C        0.00450    0.12550    0.18070    1.000
    C13      C        0.90860    0.07460    0.11880    1.000
    C14      C        0.83840    0.06630    0.07510    1.000
    C15      C        0.83550    0.99380    0.03920    1.000
    C16      C        0.76920    0.98060    0.99950    1.000
    C17      C        0.70640    0.04090    0.99410    1.000
    C18      C        0.70720    0.11260    0.03050    1.000
    C19      C        0.77400    0.12460    0.07130    1.000
    C20      C        0.64020    0.17860    0.02410    1.000
    C21      C        0.59250    0.18700    0.97130    1.000
    C22      C        0.56760    0.30100    0.06090    1.000
    C23      C        0.62410    0.23680    0.07040    1.000
    C24      C        0.53670    0.25330    0.96550    1.000
    C25      C        0.64190    0.58740    0.63940    1.000
    C26      C        0.70110    0.61780    0.67970    1.000
    C27      C        0.74350    0.69380    0.66653    1.000
    C28      C        0.71550    0.73670    0.61490    1.000
    C29      C        0.65700    0.70160    0.57680    1.000
    C30      C        0.81500    0.72460    0.70401    1.000
    C31      C        0.83090    0.69590    0.76364    1.000
    C32      C        0.90000    0.72540    0.79580    1.000
    C33      C        0.95500    0.78290    0.76968    1.000
    C34      C        0.93940    0.81280    0.71090    1.000
    C35      C        0.86940    0.78420    0.67890    1.000
    C36      C        0.99550    0.87450    0.68070    1.000
    C37      C        0.09140    0.92540    0.61880    1.000
    C38      C        0.16160    0.93370    0.57510    1.000
    C39      C        0.16450    0.00620    0.53920    1.000
    C40      C        0.23080    0.01940    0.49950    1.000
    C41      C        0.29360    0.95910    0.49410    1.000
    C42      C        0.29280    0.88740    0.53050    1.000
    C43      C        0.22600    0.87540    0.57130    1.000
    C44      C        0.35980    0.82140    0.52410    1.000
    C45      C        0.40750    0.81300    0.47130    1.000
    C46      C        0.43240    0.69900    0.56090    1.000
    C47      C        0.37590    0.76320    0.57040    1.000
    C48      C        0.46330    0.74670    0.46550    1.000
    C49      C        0.08740    0.85810    0.38940    1.000
    C50      C        0.11780    0.79890    0.42970    1.000
    C51      C        0.19380    0.75650    0.41653    1.000
    C52      C        0.23670    0.78450    0.36490    1.000
    C53      C        0.20160    0.84300    0.32680    1.000
    C54      C        0.22460    0.68500    0.45401    1.000
    C55      C        0.19590    0.66910    0.51364    1.000
    C56      C        0.22540    0.60000    0.54580    1.000
    C57      C        0.28290    0.54500    0.51968    1.000
    C58      C        0.31280    0.56060    0.46090    1.000
    C59      C        0.28420    0.63060    0.42890    1.000
    C60      C        0.37450    0.50450    0.43070    1.000
    C61      C        0.42540    0.40860    0.36880    1.000
    C62      C        0.43370    0.33840    0.32510    1.000
    C63      C        0.50620    0.33550    0.28920    1.000
    C64      C        0.51940    0.26920    0.24950    1.000
    C65      C        0.45910    0.20640    0.24410    1.000
    C66      C        0.38740    0.20720    0.28050    1.000
    C67      C        0.37540    0.27400    0.32130    1.000
    C68      C        0.32140    0.14020    0.27410    1.000
    C69      C        0.31300    0.09250    0.22130    1.000
    C70      C        0.19900    0.06760    0.31090    1.000
    C71      C        0.26320    0.12410    0.32040    1.000
    C72      C        0.24670    0.03670    0.21550    1.000
    C73      C        0.91260    0.14190    0.88940    1.000
    C74      C        0.88220    0.20110    0.92970    1.000
    C75      C        0.80620    0.24350    0.91653    1.000
    C76      C        0.76330    0.21550    0.86490    1.000
    C77      C        0.79840    0.15700    0.82680    1.000
    C78      C        0.77540    0.31500    0.95401    1.000
    C79      C        0.80410    0.33090    0.01364    1.000
    C80      C        0.77460    0.40000    0.04580    1.000
    C81      C        0.71710    0.45500    0.01968    1.000
    C82      C        0.68720    0.43940    0.96090    1.000
    C83      C        0.71580    0.36940    0.92890    1.000
    C84      C        0.62550    0.49550    0.93070    1.000
    C85      C        0.57460    0.59140    0.86880    1.000
    C86      C        0.56630    0.66160    0.82510    1.000
    C87      C        0.49380    0.66450    0.78920    1.000
    C88      C        0.48060    0.73080    0.74950    1.000
    C89      C        0.54090    0.79360    0.74410    1.000
    C90      C        0.61260    0.79280    0.78050    1.000
    C91      C        0.62460    0.72600    0.82130    1.000
    C92      C        0.67860    0.85980    0.77410    1.000
    C93      C        0.68700    0.90750    0.72130    1.000
    C94      C        0.80100    0.93240    0.81090    1.000
    C95      C        0.73680    0.87590    0.82040    1.000
    C96      C        0.75330    0.96330    0.71550    1.000
    C97      C        0.14190    0.91260    0.11060    1.000
    C98      C        0.20110    0.88220    0.07030    1.000
    C99      C        0.24350    0.80620    0.08347    1.000
    C100     C        0.21550    0.76330    0.13510    1.000
    C101     C        0.15700    0.79840    0.17320    1.000
    C102     C        0.31500    0.77540    0.04599    1.000
    C103     C        0.33090    0.80410    0.98636    1.000
    C104     C        0.40000    0.77460    0.95420    1.000
    C105     C        0.45500    0.71710    0.98032    1.000
    C106     C        0.43940    0.68720    0.03910    1.000
    C107     C        0.36940    0.71580    0.07110    1.000
    C108     C        0.49550    0.62550    0.06930    1.000
    C109     C        0.59140    0.57460    0.13120    1.000
    C110     C        0.66160    0.56630    0.17490    1.000
    C111     C        0.66450    0.49380    0.21080    1.000
    C112     C        0.73080    0.48060    0.25050    1.000
    C113     C        0.79360    0.54090    0.25590    1.000
    C114     C        0.79280    0.61260    0.21950    1.000
    C115     C        0.72600    0.62460    0.17870    1.000
    C116     C        0.85980    0.67860    0.22590    1.000
    C117     C        0.90750    0.68700    0.27870    1.000
    C118     C        0.93240    0.80100    0.18910    1.000
    C119     C        0.87590    0.73680    0.17960    1.000
    C120     C        0.96330    0.75330    0.28450    1.000
    C121     C        0.85810    0.08740    0.61060    1.000
    C122     C        0.79890    0.11780    0.57030    1.000
    C123     C        0.75650    0.19380    0.58347    1.000
    C124     C        0.78450    0.23670    0.63510    1.000
    C125     C        0.84300    0.20160    0.67320    1.000
    C126     C        0.68500    0.22460    0.54599    1.000
    C127     C        0.66910    0.19590    0.48636    1.000
    C128     C        0.60000    0.22540    0.45420    1.000
    C129     C        0.54500    0.28290    0.48032    1.000
    C130     C        0.56060    0.31280    0.53910    1.000
    C131     C        0.63060    0.28420    0.57110    1.000
    C132     C        0.50450    0.37450    0.56930    1.000
    C133     C        0.40860    0.42540    0.63120    1.000
    C134     C        0.33840    0.43370    0.67490    1.000
    C135     C        0.33550    0.50620    0.71080    1.000
    C136     C        0.26920    0.51940    0.75050    1.000
    C137     C        0.20640    0.45910    0.75590    1.000
    C138     C        0.20720    0.38740    0.71950    1.000
    C139     C        0.27400    0.37540    0.67870    1.000
    C140     C        0.14020    0.32140    0.72590    1.000
    C141     C        0.09250    0.31300    0.77870    1.000
    C142     C        0.06760    0.19900    0.68910    1.000
    C143     C        0.12410    0.26320    0.67960    1.000
    C144     C        0.03670    0.24670    0.78450    1.000
    C145     C        0.41260    0.35810    0.86060    1.000
    C146     C        0.38220    0.29890    0.82030    1.000
    C147     C        0.30620    0.25650    0.83347    1.000
    C148     C        0.26330    0.28450    0.88510    1.000
    C149     C        0.29840    0.34300    0.92320    1.000
    C150     C        0.27540    0.18500    0.79599    1.000
    C151     C        0.30410    0.16910    0.73636    1.000
    C152     C        0.27460    0.10000    0.70420    1.000
    C153     C        0.21710    0.04500    0.73032    1.000
    C154     C        0.18720    0.06060    0.78910    1.000
    C155     C        0.21580    0.13060    0.82110    1.000
    C156     C        0.12550    0.00450    0.81930    1.000
    C157     C        0.07460    0.90860    0.88120    1.000
    C158     C        0.06630    0.83840    0.92490    1.000
    C159     C        0.99380    0.83550    0.96080    1.000
    C160     C        0.98060    0.76920    0.00050    1.000
    C161     C        0.04090    0.70640    0.00590    1.000
    C162     C        0.11260    0.70720    0.96950    1.000
    C163     C        0.12460    0.77400    0.92870    1.000
    C164     C        0.17860    0.64020    0.97590    1.000
    C165     C        0.18700    0.59250    0.02870    1.000
    C166     C        0.30100    0.56760    0.93910    1.000
    C167     C        0.23680    0.62410    0.92960    1.000
    C168     C        0.25330    0.53670    0.03450    1.000
    C169     C        0.58740    0.64190    0.36060    1.000
    C170     C        0.61780    0.70110    0.32030    1.000
    C171     C        0.69380    0.74350    0.33347    1.000
    C172     C        0.73670    0.71550    0.38510    1.000
    C173     C        0.70160    0.65700    0.42320    1.000
    C174     C        0.72460    0.81500    0.29599    1.000
    C175     C        0.69590    0.83090    0.23636    1.000
    C176     C        0.72540    0.90000    0.20420    1.000
    C177     C        0.78290    0.95500    0.23032    1.000
    C178     C        0.81280    0.93940    0.28910    1.000
    C179     C        0.78420    0.86940    0.32110    1.000
    C180     C        0.87450    0.99550    0.31930    1.000
    C181     C        0.92540    0.09140    0.38120    1.000
    C182     C        0.93370    0.16160    0.42490    1.000
    C183     C        0.00620    0.16450    0.46080    1.000
    C184     C        0.01940    0.23080    0.50050    1.000
    C185     C        0.95910    0.29360    0.50590    1.000
    C186     C        0.88740    0.29280    0.46950    1.000
    C187     C        0.87540    0.22600    0.42870    1.000
    C188     C        0.82140    0.35980    0.47590    1.000
    C189     C        0.81300    0.40750    0.52870    1.000
    C190     C        0.69900    0.43240    0.43910    1.000
    C191     C        0.76320    0.37590    0.42960    1.000
    C192     C        0.74670    0.46330    0.53450    1.000
    N1       N        0.00740    0.04300    0.18407    1.000
    N2       N        0.94620    0.01060    0.14520    1.000
    N3       N        0.94340    0.14752    0.13989    1.000
    N4       N        0.92350    0.22990    0.12000    1.000
    N5       N        0.37950    0.37340    0.08670    1.000
    N6       N        0.52380    0.31100    0.00889    1.000
    N7       N        0.99260    0.95700    0.68407    1.000
    N8       N        0.05380    0.98940    0.64520    1.000
    N9       N        0.05660    0.85248    0.63989    1.000
    N10      N        0.07650    0.77010    0.62000    1.000
    N11      N        0.62050    0.62660    0.58670    1.000
    N12      N        0.47620    0.68900    0.50889    1.000
    N13      N        0.45700    0.50740    0.43407    1.000
    N14      N        0.48940    0.44620    0.39520    1.000
    N15      N        0.35248    0.44340    0.38989    1.000
    N16      N        0.27010    0.42350    0.37000    1.000
    N17      N        0.12660    0.87950    0.33670    1.000
    N18      N        0.18900    0.02380    0.25889    1.000
    N19      N        0.54300    0.49260    0.93407    1.000
    N20      N        0.51060    0.55380    0.89520    1.000
    N21      N        0.64752    0.55660    0.88989    1.000
    N22      N        0.72990    0.57650    0.87000    1.000
    N23      N        0.87340    0.12050    0.83670    1.000
    N24      N        0.81100    0.97620    0.75889    1.000
    N25      N        0.49260    0.54300    0.06593    1.000
    N26      N        0.55380    0.51060    0.10480    1.000
    N27      N        0.55660    0.64752    0.11011    1.000
    N28      N        0.57650    0.72990    0.13000    1.000
    N29      N        0.12050    0.87340    0.16330    1.000
    N30      N        0.97620    0.81100    0.24111    1.000
    N31      N        0.50740    0.45700    0.56593    1.000
    N32      N        0.44620    0.48940    0.60480    1.000
    N33      N        0.44340    0.35248    0.61011    1.000
    N34      N        0.42350    0.27010    0.63000    1.000
    N35      N        0.87950    0.12660    0.66330    1.000
    N36      N        0.02380    0.18900    0.74111    1.000
    N37      N        0.04300    0.00740    0.81593    1.000
    N38      N        0.01060    0.94620    0.85480    1.000
    N39      N        0.14752    0.94340    0.86011    1.000
    N40      N        0.22990    0.92350    0.88000    1.000
    N41      N        0.37340    0.37950    0.91330    1.000
    N42      N        0.31100    0.52380    0.99111    1.000
    N43      N        0.95700    0.99260    0.31593    1.000
    N44      N        0.98940    0.05380    0.35480    1.000
    N45      N        0.85248    0.05660    0.36011    1.000
    N46      N        0.77010    0.07650    0.38000    1.000
    N47      N        0.62660    0.62050    0.41330    1.000
    N48      N        0.68900    0.47620    0.49111    1.000
    Cl1      Cl       0.12405    0.12405    0.00000    1.000
    O1       O        0.13840    0.21000    0.99480    1.000
    O2       O        0.13700    0.07830    0.94960    1.000
    O3       O        0.21000    0.13840    0.00520    1.000
    O4       O        0.07830    0.13700    0.05040    1.000
    Cl2      Cl       0.87595    0.87595    0.50000    1.000
    O5       O        0.86160    0.79000    0.49480    1.000
    O6       O        0.86300    0.92170    0.44960    1.000
    O7       O        0.79000    0.86160    0.50520    1.000
    O8       O        0.92170    0.86300    0.55040    1.000
    Cl3      Cl       0.37595    0.62405    0.25000    1.000
    O9       O        0.29000    0.63840    0.24480    1.000
    O10      O        0.42170    0.63700    0.19960    1.000
    O11      O        0.36160    0.71000    0.25520    1.000
    O12      O        0.36300    0.57830    0.30040    1.000
    Cl4      Cl       0.62405    0.37595    0.75000    1.000
    O13      O        0.71000    0.36160    0.74480    1.000
    O14      O        0.57830    0.36300    0.69960    1.000
    O15      O        0.63840    0.29000    0.75520    1.000
    O16      O        0.63700    0.42170    0.80040    1.000
