# CIF file generated by openbabel 3.1.0, see https://openbabel.org
data_I
_chemical_name_common 'image0'
_cell_length_a 10.6466
_cell_length_b 12.0502
_cell_length_c 12.7926
_cell_angle_alpha 90
_cell_angle_beta 92.32
_cell_angle_gamma 90
_space_group_name_H-M_alt 'P 1'
_space_group_name_Hall 'P 1'
loop_
    _symmetry_equiv_pos_as_xyz
    x,y,z
loop_
    _atom_site_label
    _atom_site_type_symbol
    _atom_site_fract_x
    _atom_site_fract_y
    _atom_site_fract_z
    _atom_site_occupancy
    Cu1      Cu       0.12299    0.62973    0.49520    1.000
    N1       N        0.13800    0.78060    0.42982    1.000
    N2       N        0.06800    0.87310    0.45450    1.000
    N3       N        0.20740    0.91920    0.34346    1.000
    N4       N        0.28350    0.98010    0.28005    1.000
    N5       N        0.43900    0.08090    0.22901    1.000
    N6       N        0.35390    0.06140    0.14541    1.000
    N7       N        0.15200    0.48119    0.56360    1.000
    N8       N        0.09170    0.38198    0.53656    1.000
    N9       N        0.23680    0.35180    0.65679    1.000
    N10      N        0.31380    0.29610    0.72826    1.000
    N11      N        0.46870    0.19990    0.79520    1.000
    N12      N        0.37270    0.20290    0.86475    1.000
    C1       C        0.22050    0.81000    0.36390    1.000
    H1       H        0.27940    0.76330    0.33510    1.000
    C2       C        0.11180    0.95530    0.40200    1.000
    H2       H        0.08240    0.02790    0.40400    1.000
    C3       C        0.39470    0.03070    0.30910    1.000
    H3       H        0.43250    0.02920    0.37600    1.000
    C4       C        0.26210    0.00160    0.17750    1.000
    H4       H        0.19300    0.97760    0.13670    1.000
    C5       C        0.23870    0.46100    0.63550    1.000
    H5       H        0.29270    0.51300    0.66670    1.000
    C6       C        0.14560    0.30520    0.59380    1.000
    H6       H        0.12500    0.23020    0.59190    1.000
    C7       C        0.43000    0.25570    0.71370    1.000
    H7       H        0.47550    0.26630    0.65400    1.000
    C8       C        0.28050    0.26020    0.82270    1.000
    H8       H        0.20410    0.27420    0.85290    1.000
    Cu2      Cu       0.37701    0.12973    0.00480    1.000
    N13      N        0.36200    0.28060    0.07018    1.000
    N14      N        0.43200    0.37310    0.04550    1.000
    N15      N        0.29260    0.41920    0.15654    1.000
    N16      N        0.21650    0.48010    0.21995    1.000
    N17      N        0.06100    0.58090    0.27099    1.000
    N18      N        0.14610    0.56140    0.35459    1.000
    N19      N        0.34800    0.98119    0.93640    1.000
    N20      N        0.40830    0.88198    0.96344    1.000
    N21      N        0.26320    0.85180    0.84321    1.000
    N22      N        0.18620    0.79610    0.77174    1.000
    N23      N        0.03130    0.69990    0.70480    1.000
    N24      N        0.12730    0.70290    0.63525    1.000
    C9       C        0.27950    0.31000    0.13610    1.000
    H9       H        0.22060    0.26330    0.16490    1.000
    C10      C        0.38820    0.45530    0.09800    1.000
    H10      H        0.41760    0.52790    0.09600    1.000
    C11      C        0.10530    0.53070    0.19090    1.000
    H11      H        0.06750    0.52920    0.12400    1.000
    C12      C        0.23790    0.50160    0.32250    1.000
    H12      H        0.30700    0.47760    0.36330    1.000
    C13      C        0.26130    0.96100    0.86450    1.000
    H13      H        0.20730    0.01300    0.83330    1.000
    C14      C        0.35440    0.80520    0.90620    1.000
    H14      H        0.37500    0.73020    0.90810    1.000
    C15      C        0.07000    0.75570    0.78630    1.000
    H15      H        0.02450    0.76630    0.84600    1.000
    C16      C        0.21950    0.76020    0.67730    1.000
    H16      H        0.29590    0.77420    0.64710    1.000
    Cu3      Cu       0.87701    0.37027    0.50480    1.000
    N25      N        0.86200    0.21940    0.57018    1.000
    N26      N        0.93200    0.12690    0.54550    1.000
    N27      N        0.79260    0.08080    0.65654    1.000
    N28      N        0.71650    0.01990    0.71995    1.000
    N29      N        0.56100    0.91910    0.77099    1.000
    N30      N        0.64610    0.93860    0.85459    1.000
    N31      N        0.84800    0.51881    0.43640    1.000
    N32      N        0.90830    0.61802    0.46344    1.000
    N33      N        0.76320    0.64820    0.34321    1.000
    N34      N        0.68620    0.70390    0.27174    1.000
    N35      N        0.53130    0.80010    0.20480    1.000
    N36      N        0.62730    0.79710    0.13525    1.000
    C17      C        0.77950    0.19000    0.63610    1.000
    H17      H        0.72060    0.23670    0.66490    1.000
    C18      C        0.88820    0.04470    0.59800    1.000
    H18      H        0.91760    0.97210    0.59600    1.000
    C19      C        0.60530    0.96930    0.69090    1.000
    H19      H        0.56750    0.97080    0.62400    1.000
    C20      C        0.73790    0.99840    0.82250    1.000
    H20      H        0.80700    0.02240    0.86330    1.000
    C21      C        0.76130    0.53900    0.36450    1.000
    H21      H        0.70730    0.48700    0.33330    1.000
    C22      C        0.85440    0.69480    0.40620    1.000
    H22      H        0.87500    0.76980    0.40810    1.000
    C23      C        0.57000    0.74430    0.28630    1.000
    H23      H        0.52450    0.73370    0.34600    1.000
    C24      C        0.71950    0.73980    0.17730    1.000
    H24      H        0.79590    0.72580    0.14710    1.000
    Cu4      Cu       0.62299    0.87027    0.99520    1.000
    N37      N        0.63800    0.71940    0.92982    1.000
    N38      N        0.56800    0.62690    0.95450    1.000
    N39      N        0.70740    0.58080    0.84346    1.000
    N40      N        0.78350    0.51990    0.78005    1.000
    N41      N        0.93900    0.41910    0.72901    1.000
    N42      N        0.85390    0.43860    0.64541    1.000
    N43      N        0.65200    0.01881    0.06360    1.000
    N44      N        0.59170    0.11802    0.03656    1.000
    N45      N        0.73680    0.14820    0.15679    1.000
    N46      N        0.81380    0.20390    0.22826    1.000
    N47      N        0.96870    0.30010    0.29520    1.000
    N48      N        0.87270    0.29710    0.36475    1.000
    C25      C        0.72050    0.69000    0.86390    1.000
    H25      H        0.77940    0.73670    0.83510    1.000
    C26      C        0.61180    0.54470    0.90200    1.000
    H26      H        0.58240    0.47210    0.90400    1.000
    C27      C        0.89470    0.46930    0.80910    1.000
    H27      H        0.93250    0.47080    0.87600    1.000
    C28      C        0.76210    0.49840    0.67750    1.000
    H28      H        0.69300    0.52240    0.63670    1.000
    C29      C        0.73870    0.03900    0.13550    1.000
    H29      H        0.79270    0.98700    0.16670    1.000
    C30      C        0.64560    0.19480    0.09380    1.000
    H30      H        0.62500    0.26980    0.09190    1.000
    C31      C        0.93000    0.24430    0.21370    1.000
    H31      H        0.97550    0.23370    0.15400    1.000
    C32      C        0.78050    0.23980    0.32270    1.000
    H32      H        0.70410    0.22580    0.35290    1.000
