# CIF file generated by openbabel 3.1.0, see https://openbabel.org
data_I
_chemical_name_common 'LESWAI_clean'
_cell_length_a 12.4561
_cell_length_b 12.5595
_cell_length_c 16.592
_cell_angle_alpha 83.2753
_cell_angle_beta 76.3411
_cell_angle_gamma 60.2719
_space_group_name_H-M_alt 'P 1'
_space_group_name_Hall 'P 1'
loop_
    _symmetry_equiv_pos_as_xyz
    x,y,z
loop_
    _atom_site_label
    _atom_site_type_symbol
    _atom_site_fract_x
    _atom_site_fract_y
    _atom_site_fract_z
    _atom_site_occupancy
    La1      La       0.57639    0.90618    0.59998    1.000
    La2      La       0.51743    0.90618    0.90002    1.000
    La3      La       0.42361    0.09382    0.40002    1.000
    La4      La       0.48257    0.09382    0.09998    1.000
    H1       H        0.94910    0.79460    0.60500    1.000
    H2       H        0.14080    0.78560    0.58830    1.000
    H3       H        0.91020    0.78620    0.85140    1.000
    H4       H        0.06790    0.09780    0.54240    1.000
    H5       H        0.88550    0.10000    0.61050    1.000
    H6       H        0.16100    0.09360    0.75780    1.000
    H7       H        0.47000    0.33260    0.44180    1.000
    H8       H        0.61940    0.27460    0.64170    1.000
    H9       H        0.40240    0.53380    0.36840    1.000
    H10      H        0.25630    0.79460    0.89500    1.000
    H11      H        0.07360    0.78560    0.91170    1.000
    H12      H        0.30360    0.78620    0.64860    1.000
    H13      H        0.83430    0.09780    0.95760    1.000
    H14      H        0.01450    0.10000    0.88950    1.000
    H15      H        0.74540    0.09360    0.74220    1.000
    H16      H        0.19740    0.33260    0.05820    1.000
    H17      H        0.10600    0.27460    0.85830    1.000
    H18      H        0.06380    0.53380    0.13160    1.000
    H19      H        0.05090    0.20540    0.39500    1.000
    H20      H        0.85920    0.21440    0.41170    1.000
    H21      H        0.08980    0.21380    0.14860    1.000
    H22      H        0.93210    0.90220    0.45760    1.000
    H23      H        0.11450    0.90000    0.38950    1.000
    H24      H        0.83900    0.90640    0.24220    1.000
    H25      H        0.53000    0.66740    0.55820    1.000
    H26      H        0.38060    0.72540    0.35830    1.000
    H27      H        0.59760    0.46620    0.63160    1.000
    H28      H        0.74370    0.20540    0.10500    1.000
    H29      H        0.92640    0.21440    0.08830    1.000
    H30      H        0.69640    0.21380    0.35140    1.000
    H31      H        0.16570    0.90220    0.04240    1.000
    H32      H        0.98550    0.90000    0.11050    1.000
    H33      H        0.25460    0.90640    0.25780    1.000
    H34      H        0.80260    0.66740    0.94180    1.000
    H35      H        0.89400    0.72540    0.14170    1.000
    H36      H        0.93620    0.46620    0.86840    1.000
    C1       C        0.78350    0.80320    0.74030    1.000
    C2       C        0.91110    0.79160    0.73110    1.000
    C3       C        0.98070    0.79160    0.65130    1.000
    C4       C        0.09400    0.78760    0.64140    1.000
    C5       C        0.95620    0.78780    0.79860    1.000
    C6       C        0.14100    0.78620    0.71050    1.000
    C7       C        0.25580    0.08580    0.59740    1.000
    C8       C        0.13380    0.09440    0.64500    1.000
    C9       C        0.04880    0.09720    0.60010    1.000
    C10      C        0.94010    0.09920    0.64060    1.000
    C11      C        0.10490    0.09560    0.72860    1.000
    C12      C        0.90880    0.09980    0.72740    1.000
    C13      C        0.55630    0.15920    0.55380    1.000
    C14      C        0.54420    0.28540    0.54250    1.000
    C15      C        0.49530    0.36000    0.47970    1.000
    C16      C        0.48210    0.47860    0.47110    1.000
    C17      C        0.58400    0.32640    0.59940    1.000
    C18      C        0.42870    0.55960    0.40660    1.000
    C19      C        0.41330    0.80320    0.75970    1.000
    C20      C        0.29730    0.79160    0.76890    1.000
    C21      C        0.22770    0.79160    0.84870    1.000
    C22      C        0.11840    0.78760    0.85860    1.000
    C23      C        0.25600    0.78780    0.70140    1.000
    C24      C        0.07280    0.78620    0.78950    1.000
    C25      C        0.65840    0.08580    0.90260    1.000
    C26      C        0.77180    0.09440    0.85500    1.000
    C27      C        0.85400    0.09720    0.89990    1.000
    C28      C        0.96070    0.09920    0.85940    1.000
    C29      C        0.79950    0.09560    0.77140    1.000
    C30      C        0.99140    0.09980    0.77260    1.000
    C31      C        0.28450    0.15920    0.94620    1.000
    C32      C        0.17040    0.28540    0.95750    1.000
    C33      C        0.14470    0.36000    0.02030    1.000
    C34      C        0.03930    0.47860    0.02890    1.000
    C35      C        0.08960    0.32640    0.90060    1.000
    C36      C        0.01170    0.55960    0.09340    1.000
    C37      C        0.21650    0.19680    0.25970    1.000
    C38      C        0.08890    0.20840    0.26890    1.000
    C39      C        0.01930    0.20840    0.34870    1.000
    C40      C        0.90600    0.21240    0.35860    1.000
    C41      C        0.04380    0.21220    0.20140    1.000
    C42      C        0.85900    0.21380    0.28950    1.000
    C43      C        0.74420    0.91420    0.40260    1.000
    C44      C        0.86620    0.90560    0.35500    1.000
    C45      C        0.95120    0.90280    0.39990    1.000
    C46      C        0.05990    0.90080    0.35940    1.000
    C47      C        0.89510    0.90440    0.27140    1.000
    C48      C        0.09120    0.90020    0.27260    1.000
    C49      C        0.44370    0.84080    0.44620    1.000
    C50      C        0.45580    0.71460    0.45750    1.000
    C51      C        0.50470    0.64000    0.52030    1.000
    C52      C        0.51790    0.52140    0.52890    1.000
    C53      C        0.41600    0.67360    0.40060    1.000
    C54      C        0.57130    0.44040    0.59340    1.000
    C55      C        0.58670    0.19680    0.24030    1.000
    C56      C        0.70270    0.20840    0.23110    1.000
    C57      C        0.77230    0.20840    0.15130    1.000
    C58      C        0.88160    0.21240    0.14140    1.000
    C59      C        0.74400    0.21220    0.29860    1.000
    C60      C        0.92720    0.21380    0.21050    1.000
    C61      C        0.34160    0.91420    0.09740    1.000
    C62      C        0.22820    0.90560    0.14500    1.000
    C63      C        0.14600    0.90280    0.10010    1.000
    C64      C        0.03930    0.90080    0.14060    1.000
    C65      C        0.20050    0.90440    0.22860    1.000
    C66      C        0.00860    0.90020    0.22740    1.000
    C67      C        0.71550    0.84080    0.05380    1.000
    C68      C        0.82960    0.71460    0.04250    1.000
    C69      C        0.85530    0.64000    0.97970    1.000
    C70      C        0.96070    0.52140    0.97110    1.000
    C71      C        0.91040    0.67360    0.09940    1.000
    C72      C        0.98830    0.44040    0.90660    1.000
    O1       O        0.74130    0.82560    0.67600    1.000
    O2       O        0.72710    0.78920    0.81020    1.000
    O3       O        0.34430    0.04840    0.63510    1.000
    O4       O        0.26230    0.11640    0.52340    1.000
    O5       O        0.60930    0.09200    0.60850    1.000
    O6       O        0.51184    0.12612    0.50660    1.000
    O7       O        0.43310    0.82560    0.82400    1.000
    O8       O        0.48370    0.78920    0.68980    1.000
    O9       O        0.60730    0.04840    0.86490    1.000
    O10      O        0.62130    0.11640    0.97660    1.000
    O11      O        0.29870    0.09200    0.89150    1.000
    O12      O        0.36204    0.12612    0.99340    1.000
    O13      O        0.25870    0.17440    0.32400    1.000
    O14      O        0.27290    0.21080    0.18980    1.000
    O15      O        0.65570    0.95160    0.36490    1.000
    O16      O        0.73770    0.88360    0.47660    1.000
    O17      O        0.39070    0.90800    0.39150    1.000
    O18      O        0.48816    0.87388    0.49340    1.000
    O19      O        0.56690    0.17440    0.17600    1.000
    O20      O        0.51630    0.21080    0.31020    1.000
    O21      O        0.39270    0.95160    0.13510    1.000
    O22      O        0.37870    0.88360    0.02340    1.000
    O23      O        0.70130    0.90800    0.10850    1.000
    O24      O        0.63796    0.87388    0.00660    1.000
    O25      O        0.49320    0.01360    0.75000    1.000
    O26      O        0.50680    0.98640    0.25000    1.000
