# CIF file generated by openbabel 3.1.0, see https://openbabel.org
data_I
_chemical_name_common 'image0'
_cell_length_a 12.0746
_cell_length_b 31.4093
_cell_length_c 24.4887
_cell_angle_alpha 90
_cell_angle_beta 96.33
_cell_angle_gamma 90
_space_group_name_H-M_alt 'P 1'
_space_group_name_Hall 'P 1'
loop_
    _symmetry_equiv_pos_as_xyz
    x,y,z
loop_
    _atom_site_label
    _atom_site_type_symbol
    _atom_site_fract_x
    _atom_site_fract_y
    _atom_site_fract_z
    _atom_site_occupancy
    Zn1      Zn       0.59078    0.26391    0.21057    1.000
    Zn2      Zn       0.38733    0.27554    0.25825    1.000
    Zn3      Zn       0.30342    0.35640    0.57208    1.000
    Zn4      Zn       0.20144    0.38537    0.41712    1.000
    N1       N        0.73430    0.25105    0.17423    1.000
    N2       N        0.82240    0.20165    0.11482    1.000
    N3       N        0.85860    0.27793    0.10985    1.000
    N4       N        0.93420    0.23738    0.19044    1.000
    C1       C        0.72130    0.21080    0.14205    1.000
    H1       H        0.70740    0.18700    0.16690    1.000
    H2       H        0.65610    0.21320    0.11390    1.000
    C2       C        0.83350    0.24635    0.21631    1.000
    H3       H        0.84410    0.27290    0.23800    1.000
    H4       H        0.82010    0.22290    0.24180    1.000
    C3       C        0.75810    0.28621    0.13597    1.000
    H5       H        0.69410    0.28940    0.10730    1.000
    H6       H        0.76700    0.31330    0.15670    1.000
    C4       C        0.91920    0.19819    0.15895    1.000
    H7       H        0.90600    0.17440    0.18390    1.000
    H8       H        0.98800    0.19190    0.14190    1.000
    C5       C        0.84350    0.23823    0.07870    1.000
    H9       H        0.91110    0.23240    0.06040    1.000
    H10      H        0.77990    0.24140    0.04980    1.000
    C6       C        0.95290    0.27271    0.15309    1.000
    H11      H        0.02180    0.26730    0.13580    1.000
    H12      H        0.96340    0.29940    0.17450    1.000
    N5       N        0.24960    0.28520    0.29979    1.000
    N6       N        0.17190    0.32968    0.36779    1.000
    N7       N        0.14590    0.25248    0.36872    1.000
    N8       N        0.04850    0.29519    0.29499    1.000
    C7       C        0.26520    0.32388    0.33431    1.000
    H13      H        0.33580    0.32150    0.35880    1.000
    H14      H        0.27050    0.34910    0.31050    1.000
    C8       C        0.23810    0.24750    0.33630    1.000
    H15      H        0.22650    0.22150    0.31350    1.000
    H16      H        0.30790    0.24380    0.36110    1.000
    C9       C        0.14220    0.28986    0.26284    1.000
    H17      H        0.14710    0.31490    0.23860    1.000
    H18      H        0.13010    0.26430    0.23930    1.000
    C10      C        0.16320    0.29070    0.40205    1.000
    H19      H        0.23250    0.28750    0.42740    1.000
    H20      H        0.10050    0.29410    0.42450    1.000
    C11      C        0.06670    0.33290    0.32936    1.000
    H21      H        0.00270    0.33670    0.35100    1.000
    H22      H        0.07070    0.35830    0.30570    1.000
    C12      C        0.04290    0.25777    0.33060    1.000
    H23      H        0.03090    0.23200    0.30740    1.000
    H24      H        0.97850    0.26080    0.35200    1.000
    O1       O        0.49060    0.26045    0.32896    1.000
    O2       O        0.65030    0.26837    0.29110    1.000
    C13      C        0.59510    0.26251    0.33129    1.000
    C14      C        0.66160    0.25820    0.38656    1.000
    C15      C        0.61690    0.23979    0.42941    1.000
    H25      H        0.54180    0.23030    0.42470    1.000
    C16      C        0.68140    0.23456    0.48132    1.000
    C17      C        0.63830    0.21520    0.52670    1.000
    H26      H        0.56470    0.20410    0.52270    1.000
    C18      C        0.70210    0.21229    0.57640    1.000
    H27      H        0.67170    0.19960    0.60670    1.000
    C19      C        0.81260    0.22786    0.58327    1.000
    C20      C        0.85660    0.24536    0.53967    1.000
    H28      H        0.93180    0.25490    0.54410    1.000
    C21      C        0.79290    0.24968    0.48788    1.000
    C22      C        0.83590    0.26944    0.44281    1.000
    H29      H        0.91010    0.27990    0.44690    1.000
    C23      C        0.77230    0.27367    0.39341    1.000
    H30      H        0.80250    0.28700    0.36360    1.000
    C24      C        0.87910    0.22627    0.63860    1.000
    O3       O        0.97970    0.23728    0.64199    1.000
    O4       O        0.82760    0.21436    0.67817    1.000
    O5       O        0.37100    0.21264    0.24284    1.000
    O6       O        0.54670    0.20184    0.22423    1.000
    C25      C        0.44960    0.18880    0.23046    1.000
    C26      C        0.42320    0.14280    0.22091    1.000
    C27      C        0.31560    0.12756    0.22670    1.000
    H31      H        0.26170    0.14620    0.23910    1.000
    C28      C        0.28760    0.08629    0.21450    1.000
    H32      H        0.21440    0.07650    0.21830    1.000
    C29      C        0.36690    0.05785    0.19620    1.000
    C30      C        0.34030    0.01531    0.18060    1.000
    H33      H        0.26780    0.00470    0.18420    1.000
    C31      C        0.41720    0.98920    0.16040    1.000
    C32      C        0.52520    0.00446    0.15600    1.000
    H34      H        0.57880    0.98620    0.14260    1.000
    C33      C        0.55420    0.04511    0.17050    1.000
    H35      H        0.62760    0.05490    0.16720    1.000
    C34      C        0.47580    0.07291    0.19067    1.000
    C35      C        0.50160    0.11576    0.20379    1.000
    H36      H        0.57460    0.12610    0.20070    1.000
    C36      C        0.38220    0.94605    0.13770    1.000
    O7       O        0.44860    0.92421    0.11480    1.000
    O8       O        0.28440    0.93429    0.13948    1.000
    O9       O        0.45420    0.33416    0.26226    1.000
    O10      O        0.59250    0.32933    0.20858    1.000
    C37      C        0.53350    0.34947    0.23921    1.000
    C38      C        0.56030    0.39572    0.25023    1.000
    C39      C        0.49930    0.41826    0.28449    1.000
    H37      H        0.43760    0.40510    0.29860    1.000
    C40      C        0.52720    0.46080    0.29917    1.000
    C41      C        0.46840    0.48409    0.33629    1.000
    H38      H        0.40500    0.47180    0.34990    1.000
    C42      C        0.50190    0.52397    0.35260    1.000
    H39      H        0.46290    0.53890    0.37830    1.000
    C43      C        0.59420    0.54327    0.33166    1.000
    C44      C        0.64910    0.52254    0.29369    1.000
    H40      H        0.70790    0.53650    0.27810    1.000
    C45      C        0.61940    0.48019    0.27705    1.000
    C46      C        0.67900    0.45659    0.24100    1.000
    H41      H        0.73940    0.46940    0.22540    1.000
    C47      C        0.65060    0.41539    0.22826    1.000
    H42      H        0.69220    0.39980    0.20430    1.000
    C48      C        0.63860    0.58537    0.35430    1.000
    O11      O        0.71100    0.60510    0.33258    1.000
    O12      O        0.59830    0.59859    0.39755    1.000
    O13      O        0.36420    0.37704    0.43176    1.000
    O14      O        0.38090    0.33915    0.50918    1.000
    C49      C        0.42090    0.35972    0.47153    1.000
    C50      C        0.54470    0.36357    0.47300    1.000
    C51      C        0.61220    0.35409    0.51925    1.000
    H43      H        0.58020    0.34450    0.55080    1.000
    C52      C        0.73030    0.35822    0.52158    1.000
    C53      C        0.80160    0.34886    0.56930    1.000
    H44      H        0.77100    0.34070    0.60190    1.000
    C54      C        0.91410    0.35137    0.56924    1.000
    H45      H        0.96180    0.34500    0.60170    1.000
    C55      C        0.96010    0.36350    0.52080    1.000
    C56      C        0.89250    0.37360    0.47440    1.000
    H46      H        0.92430    0.38220    0.44240    1.000
    C57      C        0.77500    0.37140    0.47340    1.000
    C58      C        0.70330    0.38220    0.42580    1.000
    H47      H        0.73350    0.39270    0.39420    1.000
    C59      C        0.59110    0.37760    0.42510    1.000
    H48      H        0.54350    0.38370    0.39260    1.000
    C60      C        0.08280    0.36332    0.52001    1.000
    O15      O        0.14180    0.36070    0.56480    1.000
    O16      O        0.11630    0.35560    0.47510    1.000
    O17      O        0.13260    0.38550    0.47870    1.000
    Zn5      Zn       0.90922    0.76391    0.28943    1.000
    Zn6      Zn       0.11267    0.77554    0.24175    1.000
    Zn7      Zn       0.19658    0.85640    0.92792    1.000
    Zn8      Zn       0.29856    0.88537    0.08288    1.000
    N9       N        0.76570    0.75105    0.32577    1.000
    N10      N        0.67760    0.70165    0.38518    1.000
    N11      N        0.64140    0.77793    0.39015    1.000
    N12      N        0.56580    0.73738    0.30956    1.000
    C61      C        0.77870    0.71080    0.35795    1.000
    H49      H        0.79260    0.68700    0.33310    1.000
    H50      H        0.84390    0.71320    0.38610    1.000
    C62      C        0.66650    0.74635    0.28369    1.000
    H51      H        0.65590    0.77290    0.26200    1.000
    H52      H        0.67990    0.72290    0.25820    1.000
    C63      C        0.74190    0.78621    0.36403    1.000
    H53      H        0.80590    0.78940    0.39270    1.000
    H54      H        0.73300    0.81330    0.34330    1.000
    C64      C        0.58080    0.69819    0.34105    1.000
    H55      H        0.59400    0.67440    0.31610    1.000
    H56      H        0.51200    0.69190    0.35810    1.000
    C65      C        0.65650    0.73823    0.42130    1.000
    H57      H        0.58890    0.73240    0.43960    1.000
    H58      H        0.72010    0.74140    0.45020    1.000
    C66      C        0.54710    0.77271    0.34691    1.000
    H59      H        0.47820    0.76730    0.36420    1.000
    H60      H        0.53660    0.79940    0.32550    1.000
    N13      N        0.25040    0.78520    0.20021    1.000
    N14      N        0.32810    0.82968    0.13221    1.000
    N15      N        0.35410    0.75248    0.13128    1.000
    N16      N        0.45150    0.79519    0.20501    1.000
    C67      C        0.23480    0.82388    0.16569    1.000
    H61      H        0.16420    0.82150    0.14120    1.000
    H62      H        0.22950    0.84910    0.18950    1.000
    C68      C        0.26190    0.74750    0.16370    1.000
    H63      H        0.27350    0.72150    0.18650    1.000
    H64      H        0.19210    0.74380    0.13890    1.000
    C69      C        0.35780    0.78986    0.23716    1.000
    H65      H        0.35290    0.81490    0.26140    1.000
    H66      H        0.36990    0.76430    0.26070    1.000
    C70      C        0.33680    0.79070    0.09795    1.000
    H67      H        0.26750    0.78750    0.07260    1.000
    H68      H        0.39950    0.79410    0.07550    1.000
    C71      C        0.43330    0.83290    0.17064    1.000
    H69      H        0.49730    0.83670    0.14900    1.000
    H70      H        0.42930    0.85830    0.19430    1.000
    C72      C        0.45710    0.75777    0.16940    1.000
    H71      H        0.46910    0.73200    0.19260    1.000
    H72      H        0.52150    0.76080    0.14800    1.000
    O18      O        0.00940    0.76045    0.17104    1.000
    O19      O        0.84970    0.76837    0.20890    1.000
    C73      C        0.90490    0.76251    0.16871    1.000
    C74      C        0.83840    0.75820    0.11344    1.000
    C75      C        0.88310    0.73979    0.07059    1.000
    H73      H        0.95820    0.73030    0.07530    1.000
    C76      C        0.81860    0.73456    0.01868    1.000
    C77      C        0.86170    0.71520    0.97330    1.000
    H74      H        0.93530    0.70410    0.97730    1.000
    C78      C        0.79790    0.71229    0.92360    1.000
    H75      H        0.82830    0.69960    0.89330    1.000
    C79      C        0.68740    0.72786    0.91673    1.000
    C80      C        0.64340    0.74536    0.96033    1.000
    H76      H        0.56820    0.75490    0.95590    1.000
    C81      C        0.70710    0.74968    0.01212    1.000
    C82      C        0.66410    0.76944    0.05719    1.000
    H77      H        0.58990    0.77990    0.05310    1.000
    C83      C        0.72770    0.77367    0.10659    1.000
    H78      H        0.69750    0.78700    0.13640    1.000
    C84      C        0.62090    0.72627    0.86140    1.000
    O20      O        0.52030    0.73728    0.85801    1.000
    O21      O        0.67240    0.71436    0.82183    1.000
    O22      O        0.12900    0.71264    0.25716    1.000
    O23      O        0.95330    0.70184    0.27577    1.000
    C85      C        0.05040    0.68880    0.26954    1.000
    C86      C        0.07680    0.64280    0.27909    1.000
    C87      C        0.18440    0.62756    0.27330    1.000
    H79      H        0.23830    0.64620    0.26090    1.000
    C88      C        0.21240    0.58629    0.28550    1.000
    H80      H        0.28560    0.57650    0.28170    1.000
    C89      C        0.13310    0.55785    0.30380    1.000
    C90      C        0.15970    0.51531    0.31940    1.000
    H81      H        0.23220    0.50470    0.31580    1.000
    C91      C        0.08280    0.48920    0.33960    1.000
    C92      C        0.97480    0.50446    0.34400    1.000
    H82      H        0.92120    0.48620    0.35740    1.000
    C93      C        0.94580    0.54511    0.32950    1.000
    H83      H        0.87240    0.55490    0.33280    1.000
    C94      C        0.02420    0.57291    0.30933    1.000
    C95      C        0.99840    0.61576    0.29621    1.000
    H84      H        0.92540    0.62610    0.29930    1.000
    C96      C        0.11780    0.44605    0.36230    1.000
    O24      O        0.05140    0.42421    0.38520    1.000
    O25      O        0.21560    0.43429    0.36052    1.000
    O26      O        0.04580    0.83416    0.23774    1.000
    O27      O        0.90750    0.82933    0.29142    1.000
    C97      C        0.96650    0.84947    0.26079    1.000
    C98      C        0.93970    0.89572    0.24977    1.000
    C99      C        0.00070    0.91826    0.21551    1.000
    H85      H        0.06240    0.90510    0.20140    1.000
    C100     C        0.97280    0.96080    0.20083    1.000
    C101     C        0.03160    0.98409    0.16371    1.000
    H86      H        0.09500    0.97180    0.15010    1.000
    C102     C        0.99810    0.02397    0.14740    1.000
    H87      H        0.03710    0.03890    0.12170    1.000
    C103     C        0.90580    0.04327    0.16834    1.000
    C104     C        0.85090    0.02254    0.20631    1.000
    H88      H        0.79210    0.03650    0.22190    1.000
    C105     C        0.88060    0.98019    0.22295    1.000
    C106     C        0.82100    0.95659    0.25900    1.000
    H89      H        0.76060    0.96940    0.27460    1.000
    C107     C        0.84940    0.91539    0.27174    1.000
    H90      H        0.80780    0.89980    0.29570    1.000
    C108     C        0.86140    0.08537    0.14570    1.000
    O28      O        0.78900    0.10510    0.16742    1.000
    O29      O        0.90170    0.09859    0.10245    1.000
    O30      O        0.13580    0.87704    0.06824    1.000
    O31      O        0.11910    0.83915    0.99082    1.000
    C109     C        0.07910    0.85972    0.02847    1.000
    C110     C        0.95530    0.86357    0.02700    1.000
    C111     C        0.88780    0.85409    0.98075    1.000
    H91      H        0.91980    0.84450    0.94920    1.000
    C112     C        0.76970    0.85822    0.97842    1.000
    C113     C        0.69840    0.84886    0.93070    1.000
    H92      H        0.72900    0.84070    0.89810    1.000
    C114     C        0.58590    0.85137    0.93076    1.000
    H93      H        0.53820    0.84500    0.89830    1.000
    C115     C        0.53990    0.86350    0.97920    1.000
    C116     C        0.60750    0.87360    0.02560    1.000
    H94      H        0.57570    0.88220    0.05760    1.000
    C117     C        0.72500    0.87140    0.02660    1.000
    C118     C        0.79670    0.88220    0.07420    1.000
    H95      H        0.76650    0.89270    0.10580    1.000
    C119     C        0.90890    0.87760    0.07490    1.000
    H96      H        0.95650    0.88370    0.10740    1.000
    C120     C        0.41720    0.86332    0.97999    1.000
    O32      O        0.35820    0.86070    0.93520    1.000
    O33      O        0.38370    0.85560    0.02490    1.000
    O34      O        0.36740    0.88550    0.02130    1.000
    Zn9      Zn       0.40922    0.73609    0.78943    1.000
    Zn10     Zn       0.61267    0.72446    0.74175    1.000
    Zn11     Zn       0.69658    0.64360    0.42792    1.000
    Zn12     Zn       0.79856    0.61463    0.58288    1.000
    N17      N        0.26570    0.74895    0.82577    1.000
    N18      N        0.17760    0.79835    0.88518    1.000
    N19      N        0.14140    0.72207    0.89015    1.000
    N20      N        0.06580    0.76262    0.80956    1.000
    C121     C        0.27870    0.78920    0.85795    1.000
    H97      H        0.29260    0.81300    0.83310    1.000
    H98      H        0.34390    0.78680    0.88610    1.000
    C122     C        0.16650    0.75365    0.78369    1.000
    H99      H        0.15590    0.72710    0.76200    1.000
    H100     H        0.17990    0.77710    0.75820    1.000
    C123     C        0.24190    0.71379    0.86403    1.000
    H101     H        0.30590    0.71060    0.89270    1.000
    H102     H        0.23300    0.68670    0.84330    1.000
    C124     C        0.08080    0.80181    0.84105    1.000
    H103     H        0.09400    0.82560    0.81610    1.000
    H104     H        0.01200    0.80810    0.85810    1.000
    C125     C        0.15650    0.76177    0.92130    1.000
    H105     H        0.08890    0.76760    0.93960    1.000
    H106     H        0.22010    0.75860    0.95020    1.000
    C126     C        0.04710    0.72729    0.84691    1.000
    H107     H        0.97820    0.73270    0.86420    1.000
    H108     H        0.03660    0.70060    0.82550    1.000
    N21      N        0.75040    0.71480    0.70021    1.000
    N22      N        0.82810    0.67032    0.63221    1.000
    N23      N        0.85410    0.74752    0.63128    1.000
    N24      N        0.95150    0.70481    0.70501    1.000
    C127     C        0.73480    0.67612    0.66569    1.000
    H109     H        0.66420    0.67850    0.64120    1.000
    H110     H        0.72950    0.65090    0.68950    1.000
    C128     C        0.76190    0.75250    0.66370    1.000
    H111     H        0.77350    0.77850    0.68650    1.000
    H112     H        0.69210    0.75620    0.63890    1.000
    C129     C        0.85780    0.71014    0.73716    1.000
    H113     H        0.85290    0.68510    0.76140    1.000
    H114     H        0.86990    0.73570    0.76070    1.000
    C130     C        0.83680    0.70930    0.59795    1.000
    H115     H        0.76750    0.71250    0.57260    1.000
    H116     H        0.89950    0.70590    0.57550    1.000
    C131     C        0.93330    0.66710    0.67064    1.000
    H117     H        0.99730    0.66330    0.64900    1.000
    H118     H        0.92930    0.64170    0.69430    1.000
    C132     C        0.95710    0.74223    0.66940    1.000
    H119     H        0.96910    0.76800    0.69260    1.000
    H120     H        0.02150    0.73920    0.64800    1.000
    O35      O        0.50940    0.73955    0.67104    1.000
    O36      O        0.34970    0.73163    0.70890    1.000
    C133     C        0.40490    0.73749    0.66871    1.000
    C134     C        0.33840    0.74180    0.61344    1.000
    C135     C        0.38310    0.76021    0.57059    1.000
    H121     H        0.45820    0.76970    0.57530    1.000
    C136     C        0.31860    0.76544    0.51868    1.000
    C137     C        0.36170    0.78480    0.47330    1.000
    H122     H        0.43530    0.79590    0.47730    1.000
    C138     C        0.29790    0.78771    0.42360    1.000
    H123     H        0.32830    0.80040    0.39330    1.000
    C139     C        0.18740    0.77214    0.41673    1.000
    C140     C        0.14340    0.75464    0.46033    1.000
    H124     H        0.06820    0.74510    0.45590    1.000
    C141     C        0.20710    0.75032    0.51212    1.000
    C142     C        0.16410    0.73056    0.55719    1.000
    H125     H        0.08990    0.72010    0.55310    1.000
    C143     C        0.22770    0.72633    0.60659    1.000
    H126     H        0.19750    0.71300    0.63640    1.000
    C144     C        0.12090    0.77373    0.36140    1.000
    O37      O        0.02030    0.76272    0.35801    1.000
    O38      O        0.17240    0.78564    0.32183    1.000
    O39      O        0.62900    0.78736    0.75716    1.000
    O40      O        0.45330    0.79816    0.77577    1.000
    C145     C        0.55040    0.81120    0.76954    1.000
    C146     C        0.57680    0.85720    0.77909    1.000
    C147     C        0.68440    0.87244    0.77330    1.000
    H127     H        0.73830    0.85380    0.76090    1.000
    C148     C        0.71240    0.91371    0.78550    1.000
    H128     H        0.78560    0.92350    0.78170    1.000
    C149     C        0.63310    0.94215    0.80380    1.000
    C150     C        0.65970    0.98469    0.81940    1.000
    H129     H        0.73220    0.99530    0.81580    1.000
    C151     C        0.58280    0.01080    0.83960    1.000
    C152     C        0.47480    0.99554    0.84400    1.000
    H130     H        0.42120    0.01380    0.85740    1.000
    C153     C        0.44580    0.95489    0.82950    1.000
    H131     H        0.37240    0.94510    0.83280    1.000
    C154     C        0.52420    0.92709    0.80933    1.000
    C155     C        0.49840    0.88424    0.79621    1.000
    H132     H        0.42540    0.87390    0.79930    1.000
    C156     C        0.61780    0.05395    0.86230    1.000
    O41      O        0.55140    0.07579    0.88520    1.000
    O42      O        0.71560    0.06571    0.86052    1.000
    O43      O        0.54580    0.66584    0.73774    1.000
    O44      O        0.40750    0.67067    0.79142    1.000
    C157     C        0.46650    0.65053    0.76079    1.000
    C158     C        0.43970    0.60428    0.74977    1.000
    C159     C        0.50070    0.58174    0.71551    1.000
    H133     H        0.56240    0.59490    0.70140    1.000
    C160     C        0.47280    0.53920    0.70083    1.000
    C161     C        0.53160    0.51591    0.66371    1.000
    H134     H        0.59500    0.52820    0.65010    1.000
    C162     C        0.49810    0.47603    0.64740    1.000
    H135     H        0.53710    0.46110    0.62170    1.000
    C163     C        0.40580    0.45673    0.66834    1.000
    C164     C        0.35090    0.47746    0.70631    1.000
    H136     H        0.29210    0.46350    0.72190    1.000
    C165     C        0.38060    0.51981    0.72295    1.000
    C166     C        0.32100    0.54341    0.75900    1.000
    H137     H        0.26060    0.53060    0.77460    1.000
    C167     C        0.34940    0.58461    0.77174    1.000
    H138     H        0.30780    0.60020    0.79570    1.000
    C168     C        0.36140    0.41463    0.64570    1.000
    O45      O        0.28900    0.39490    0.66742    1.000
    O46      O        0.40170    0.40141    0.60245    1.000
    O47      O        0.63580    0.62296    0.56824    1.000
    O48      O        0.61910    0.66085    0.49082    1.000
    C169     C        0.57910    0.64028    0.52847    1.000
    C170     C        0.45530    0.63643    0.52700    1.000
    C171     C        0.38780    0.64591    0.48075    1.000
    H139     H        0.41980    0.65550    0.44920    1.000
    C172     C        0.26970    0.64178    0.47842    1.000
    C173     C        0.19840    0.65114    0.43070    1.000
    H140     H        0.22900    0.65930    0.39810    1.000
    C174     C        0.08590    0.64863    0.43076    1.000
    H141     H        0.03820    0.65500    0.39830    1.000
    C175     C        0.03990    0.63650    0.47920    1.000
    C176     C        0.10750    0.62640    0.52560    1.000
    H142     H        0.07570    0.61780    0.55760    1.000
    C177     C        0.22500    0.62860    0.52660    1.000
    C178     C        0.29670    0.61780    0.57420    1.000
    H143     H        0.26650    0.60730    0.60580    1.000
    C179     C        0.40890    0.62240    0.57490    1.000
    H144     H        0.45650    0.61630    0.60740    1.000
    C180     C        0.91720    0.63668    0.47999    1.000
    O49      O        0.85820    0.63930    0.43520    1.000
    O50      O        0.88370    0.64440    0.52490    1.000
    O51      O        0.86740    0.61450    0.52130    1.000
    Zn13     Zn       0.09078    0.23609    0.71057    1.000
    Zn14     Zn       0.88733    0.22446    0.75825    1.000
    Zn15     Zn       0.80342    0.14360    0.07208    1.000
    Zn16     Zn       0.70144    0.11463    0.91712    1.000
    N25      N        0.23430    0.24895    0.67423    1.000
    N26      N        0.32240    0.29835    0.61482    1.000
    N27      N        0.35860    0.22207    0.60985    1.000
    N28      N        0.43420    0.26262    0.69044    1.000
    C181     C        0.22130    0.28920    0.64205    1.000
    H145     H        0.20740    0.31300    0.66690    1.000
    H146     H        0.15610    0.28680    0.61390    1.000
    C182     C        0.33350    0.25365    0.71631    1.000
    H147     H        0.34410    0.22710    0.73800    1.000
    H148     H        0.32010    0.27710    0.74180    1.000
    C183     C        0.25810    0.21379    0.63597    1.000
    H149     H        0.19410    0.21060    0.60730    1.000
    H150     H        0.26700    0.18670    0.65670    1.000
    C184     C        0.41920    0.30181    0.65895    1.000
    H151     H        0.40600    0.32560    0.68390    1.000
    H152     H        0.48800    0.30810    0.64190    1.000
    C185     C        0.34350    0.26177    0.57870    1.000
    H153     H        0.41110    0.26760    0.56040    1.000
    H154     H        0.27990    0.25860    0.54980    1.000
    C186     C        0.45290    0.22729    0.65309    1.000
    H155     H        0.52180    0.23270    0.63580    1.000
    H156     H        0.46340    0.20060    0.67450    1.000
    N29      N        0.74960    0.21480    0.79979    1.000
    N30      N        0.67190    0.17032    0.86779    1.000
    N31      N        0.64590    0.24752    0.86872    1.000
    N32      N        0.54850    0.20481    0.79499    1.000
    C187     C        0.76520    0.17612    0.83431    1.000
    H157     H        0.83580    0.17850    0.85880    1.000
    H158     H        0.77050    0.15090    0.81050    1.000
    C188     C        0.73810    0.25250    0.83630    1.000
    H159     H        0.72650    0.27850    0.81350    1.000
    H160     H        0.80790    0.25620    0.86110    1.000
    C189     C        0.64220    0.21014    0.76284    1.000
    H161     H        0.64710    0.18510    0.73860    1.000
    H162     H        0.63010    0.23570    0.73930    1.000
    C190     C        0.66320    0.20930    0.90205    1.000
    H163     H        0.73250    0.21250    0.92740    1.000
    H164     H        0.60050    0.20590    0.92450    1.000
    C191     C        0.56670    0.16710    0.82936    1.000
    H165     H        0.50270    0.16330    0.85100    1.000
    H166     H        0.57070    0.14170    0.80570    1.000
    C192     C        0.54290    0.24223    0.83060    1.000
    H167     H        0.53090    0.26800    0.80740    1.000
    H168     H        0.47850    0.23920    0.85200    1.000
    O52      O        0.99060    0.23955    0.82896    1.000
    O53      O        0.15030    0.23163    0.79110    1.000
    C193     C        0.09510    0.23749    0.83129    1.000
    C194     C        0.16160    0.24180    0.88656    1.000
    C195     C        0.11690    0.26021    0.92941    1.000
    H169     H        0.04180    0.26970    0.92470    1.000
    C196     C        0.18140    0.26544    0.98132    1.000
    C197     C        0.13830    0.28480    0.02670    1.000
    H170     H        0.06470    0.29590    0.02270    1.000
    C198     C        0.20210    0.28771    0.07640    1.000
    H171     H        0.17170    0.30040    0.10670    1.000
    C199     C        0.31260    0.27214    0.08327    1.000
    C200     C        0.35660    0.25464    0.03967    1.000
    H172     H        0.43180    0.24510    0.04410    1.000
    C201     C        0.29290    0.25032    0.98788    1.000
    C202     C        0.33590    0.23056    0.94281    1.000
    H173     H        0.41010    0.22010    0.94690    1.000
    C203     C        0.27230    0.22633    0.89341    1.000
    H174     H        0.30250    0.21300    0.86360    1.000
    C204     C        0.37910    0.27373    0.13860    1.000
    O54      O        0.47970    0.26272    0.14199    1.000
    O55      O        0.32760    0.28564    0.17817    1.000
    O56      O        0.87100    0.28736    0.74284    1.000
    O57      O        0.04670    0.29816    0.72423    1.000
    C205     C        0.94960    0.31120    0.73046    1.000
    C206     C        0.92320    0.35720    0.72091    1.000
    C207     C        0.81560    0.37244    0.72670    1.000
    H175     H        0.76170    0.35380    0.73910    1.000
    C208     C        0.78760    0.41371    0.71450    1.000
    H176     H        0.71440    0.42350    0.71830    1.000
    C209     C        0.86690    0.44215    0.69620    1.000
    C210     C        0.84030    0.48469    0.68060    1.000
    H177     H        0.76780    0.49530    0.68420    1.000
    C211     C        0.91720    0.51080    0.66040    1.000
    C212     C        0.02520    0.49554    0.65600    1.000
    H178     H        0.07880    0.51380    0.64260    1.000
    C213     C        0.05420    0.45489    0.67050    1.000
    H179     H        0.12760    0.44510    0.66720    1.000
    C214     C        0.97580    0.42709    0.69067    1.000
    C215     C        0.00160    0.38424    0.70379    1.000
    H180     H        0.07460    0.37390    0.70070    1.000
    C216     C        0.88220    0.55395    0.63770    1.000
    O58      O        0.94860    0.57579    0.61480    1.000
    O59      O        0.78440    0.56571    0.63948    1.000
    O60      O        0.95420    0.16584    0.76226    1.000
    O61      O        0.09250    0.17067    0.70858    1.000
    C217     C        0.03350    0.15053    0.73921    1.000
    C218     C        0.06030    0.10428    0.75023    1.000
    C219     C        0.99930    0.08174    0.78449    1.000
    H181     H        0.93760    0.09490    0.79860    1.000
    C220     C        0.02720    0.03920    0.79917    1.000
    C221     C        0.96840    0.01591    0.83629    1.000
    H182     H        0.90500    0.02820    0.84990    1.000
    C222     C        0.00190    0.97603    0.85260    1.000
    H183     H        0.96290    0.96110    0.87830    1.000
    C223     C        0.09420    0.95673    0.83166    1.000
    C224     C        0.14910    0.97746    0.79369    1.000
    H184     H        0.20790    0.96350    0.77810    1.000
    C225     C        0.11940    0.01981    0.77705    1.000
    C226     C        0.17900    0.04341    0.74100    1.000
    H185     H        0.23940    0.03060    0.72540    1.000
    C227     C        0.15060    0.08461    0.72826    1.000
    H186     H        0.19220    0.10020    0.70430    1.000
    C228     C        0.13860    0.91463    0.85430    1.000
    O62      O        0.21100    0.89490    0.83258    1.000
    O63      O        0.09830    0.90141    0.89755    1.000
    O64      O        0.86420    0.12296    0.93176    1.000
    O65      O        0.88090    0.16085    0.00918    1.000
    C229     C        0.92090    0.14028    0.97153    1.000
    C230     C        0.04470    0.13643    0.97300    1.000
    C231     C        0.11220    0.14591    0.01925    1.000
    H187     H        0.08020    0.15550    0.05080    1.000
    C232     C        0.23030    0.14178    0.02158    1.000
    C233     C        0.30160    0.15114    0.06930    1.000
    H188     H        0.27100    0.15930    0.10190    1.000
    C234     C        0.41410    0.14863    0.06924    1.000
    H189     H        0.46180    0.15500    0.10170    1.000
    C235     C        0.46010    0.13650    0.02080    1.000
    C236     C        0.39250    0.12640    0.97440    1.000
    H190     H        0.42430    0.11780    0.94240    1.000
    C237     C        0.27500    0.12860    0.97340    1.000
    C238     C        0.20330    0.11780    0.92580    1.000
    H191     H        0.23350    0.10730    0.89420    1.000
    C239     C        0.09110    0.12240    0.92510    1.000
    H192     H        0.04350    0.11630    0.89260    1.000
    C240     C        0.58280    0.13668    0.02001    1.000
    O66      O        0.64180    0.13930    0.06480    1.000
    O67      O        0.61630    0.14440    0.97510    1.000
    O68      O        0.63260    0.11450    0.97870    1.000
