# CIF file generated by openbabel 3.1.0, see https://openbabel.org
data_I
_chemical_name_common 'image0'
_cell_length_a 7.5999
_cell_length_b 21.092
_cell_length_c 19.515
_cell_angle_alpha 90
_cell_angle_beta 98.305
_cell_angle_gamma 90
_space_group_name_H-M_alt 'P 1'
_space_group_name_Hall 'P 1'
loop_
    _symmetry_equiv_pos_as_xyz
    x,y,z
loop_
    _atom_site_label
    _atom_site_type_symbol
    _atom_site_fract_x
    _atom_site_fract_y
    _atom_site_fract_z
    _atom_site_occupancy
    Nd1      Nd       0.98859    0.72359    0.75539    1.000
    O1       O        0.82930    0.67380    0.64790    1.000
    O2       O        0.70020    0.76090    0.67500    1.000
    C1       C        0.71750    0.71610    0.63220    1.000
    C2       C        0.60220    0.71580    0.56430    1.000
    C3       C        0.55210    0.65840    0.53220    1.000
    C4       C        0.54880    0.77280    0.53240    1.000
    N1       N        0.59900    0.82640    0.55400    1.000
    N2       N        0.63600    0.59910    0.55190    1.000
    O3       O        0.31460    0.71050    0.82250    1.000
    O4       O        0.09090    0.68300    0.87370    1.000
    C5       C        0.25430    0.69010    0.87580    1.000
    C6       C        0.37810    0.67800    0.93890    1.000
    C7       C        0.31730    0.67480    0.00330    1.000
    C8       C        0.55890    0.67550    0.93770    1.000
    H1       H        0.59930    0.67430    0.89490    1.000
    O5       O        0.23450    0.83330    0.78600    1.000
    O6       O        0.98290    0.83740    0.71790    1.000
    C9       C        0.11370    0.86460    0.75190    1.000
    C10      C        0.12120    0.93490    0.75070    1.000
    C11      C        0.00440    0.96760    0.70250    1.000
    C12      C        0.24250    0.96670    0.79740    1.000
    N3       N        0.36300    0.94270    0.84970    1.000
    N4       N        0.87700    0.93970    0.66040    1.000
    N5       N        0.14670    0.66090    0.00950    1.000
    Nd2      Nd       0.48859    0.22359    0.75539    1.000
    O7       O        0.32930    0.17380    0.64790    1.000
    O8       O        0.20020    0.26090    0.67500    1.000
    C13      C        0.21750    0.21610    0.63220    1.000
    C14      C        0.10220    0.21580    0.56430    1.000
    C15      C        0.05210    0.15840    0.53220    1.000
    C16      C        0.04880    0.27280    0.53240    1.000
    N6       N        0.09900    0.32640    0.55400    1.000
    N7       N        0.13600    0.09910    0.55190    1.000
    O9       O        0.81460    0.21050    0.82250    1.000
    O10      O        0.59090    0.18300    0.87370    1.000
    C17      C        0.75430    0.19010    0.87580    1.000
    C18      C        0.87810    0.17800    0.93890    1.000
    C19      C        0.81730    0.17480    0.00330    1.000
    C20      C        0.05890    0.17550    0.93770    1.000
    H2       H        0.09930    0.17430    0.89490    1.000
    O11      O        0.73450    0.33330    0.78600    1.000
    O12      O        0.48290    0.33740    0.71790    1.000
    C21      C        0.61370    0.36460    0.75190    1.000
    C22      C        0.62120    0.43490    0.75070    1.000
    C23      C        0.50440    0.46760    0.70250    1.000
    C24      C        0.74250    0.46670    0.79740    1.000
    N8       N        0.86300    0.44270    0.84970    1.000
    N9       N        0.37700    0.43970    0.66040    1.000
    N10      N        0.64670    0.16090    0.00950    1.000
    Nd3      Nd       0.01141    0.72359    0.24461    1.000
    O13      O        0.17070    0.67380    0.35210    1.000
    O14      O        0.29980    0.76090    0.32500    1.000
    C25      C        0.28250    0.71610    0.36780    1.000
    C26      C        0.39780    0.71580    0.43570    1.000
    C27      C        0.44790    0.65840    0.46780    1.000
    C28      C        0.45120    0.77280    0.46760    1.000
    N11      N        0.40100    0.82640    0.44600    1.000
    N12      N        0.36400    0.59910    0.44810    1.000
    O15      O        0.68540    0.71050    0.17750    1.000
    O16      O        0.90910    0.68300    0.12630    1.000
    C29      C        0.74570    0.69010    0.12420    1.000
    C30      C        0.62190    0.67800    0.06110    1.000
    C31      C        0.68270    0.67480    0.99670    1.000
    C32      C        0.44110    0.67550    0.06230    1.000
    H3       H        0.40070    0.67430    0.10510    1.000
    O17      O        0.76550    0.83330    0.21400    1.000
    O18      O        0.01710    0.83740    0.28210    1.000
    C33      C        0.88630    0.86460    0.24810    1.000
    C34      C        0.87880    0.93490    0.24930    1.000
    C35      C        0.99560    0.96760    0.29750    1.000
    C36      C        0.75750    0.96670    0.20260    1.000
    N13      N        0.63700    0.94270    0.15030    1.000
    N14      N        0.12300    0.93970    0.33960    1.000
    N15      N        0.85330    0.66090    0.99050    1.000
    Nd4      Nd       0.51141    0.22359    0.24461    1.000
    O19      O        0.67070    0.17380    0.35210    1.000
    O20      O        0.79980    0.26090    0.32500    1.000
    C37      C        0.78250    0.21610    0.36780    1.000
    C38      C        0.89780    0.21580    0.43570    1.000
    C39      C        0.94790    0.15840    0.46780    1.000
    C40      C        0.95120    0.27280    0.46760    1.000
    N16      N        0.90100    0.32640    0.44600    1.000
    N17      N        0.86400    0.09910    0.44810    1.000
    O21      O        0.18540    0.21050    0.17750    1.000
    O22      O        0.40910    0.18300    0.12630    1.000
    C41      C        0.24570    0.19010    0.12420    1.000
    C42      C        0.12190    0.17800    0.06110    1.000
    C43      C        0.18270    0.17480    0.99670    1.000
    C44      C        0.94110    0.17550    0.06230    1.000
    H4       H        0.90070    0.17430    0.10510    1.000
    O23      O        0.26550    0.33330    0.21400    1.000
    O24      O        0.51710    0.33740    0.28210    1.000
    C45      C        0.38630    0.36460    0.24810    1.000
    C46      C        0.37880    0.43490    0.24930    1.000
    C47      C        0.49560    0.46760    0.29750    1.000
    C48      C        0.25750    0.46670    0.20260    1.000
    N18      N        0.13700    0.44270    0.15030    1.000
    N19      N        0.62300    0.43970    0.33960    1.000
    N20      N        0.35330    0.16090    0.99050    1.000
    Nd5      Nd       0.01141    0.27641    0.24461    1.000
    O25      O        0.17070    0.32620    0.35210    1.000
    O26      O        0.29980    0.23910    0.32500    1.000
    C49      C        0.28250    0.28390    0.36780    1.000
    C50      C        0.39780    0.28420    0.43570    1.000
    C51      C        0.44790    0.34160    0.46780    1.000
    C52      C        0.45120    0.22720    0.46760    1.000
    N21      N        0.40100    0.17360    0.44600    1.000
    N22      N        0.36400    0.40090    0.44810    1.000
    O27      O        0.68540    0.28950    0.17750    1.000
    O28      O        0.90910    0.31700    0.12630    1.000
    C53      C        0.74570    0.30990    0.12420    1.000
    C54      C        0.62190    0.32200    0.06110    1.000
    C55      C        0.68270    0.32520    0.99670    1.000
    C56      C        0.44110    0.32450    0.06230    1.000
    H5       H        0.40070    0.32570    0.10510    1.000
    O29      O        0.76550    0.16670    0.21400    1.000
    O30      O        0.01710    0.16260    0.28210    1.000
    C57      C        0.88630    0.13540    0.24810    1.000
    C58      C        0.87880    0.06510    0.24930    1.000
    C59      C        0.99560    0.03240    0.29750    1.000
    C60      C        0.75750    0.03330    0.20260    1.000
    N23      N        0.63700    0.05730    0.15030    1.000
    N24      N        0.12300    0.06030    0.33960    1.000
    N25      N        0.85330    0.33910    0.99050    1.000
    Nd6      Nd       0.51141    0.77641    0.24461    1.000
    O31      O        0.67070    0.82620    0.35210    1.000
    O32      O        0.79980    0.73910    0.32500    1.000
    C61      C        0.78250    0.78390    0.36780    1.000
    C62      C        0.89780    0.78420    0.43570    1.000
    C63      C        0.94790    0.84160    0.46780    1.000
    C64      C        0.95120    0.72720    0.46760    1.000
    N26      N        0.90100    0.67360    0.44600    1.000
    N27      N        0.86400    0.90090    0.44810    1.000
    O33      O        0.18540    0.78950    0.17750    1.000
    O34      O        0.40910    0.81700    0.12630    1.000
    C65      C        0.24570    0.80990    0.12420    1.000
    C66      C        0.12190    0.82200    0.06110    1.000
    C67      C        0.18270    0.82520    0.99670    1.000
    C68      C        0.94110    0.82450    0.06230    1.000
    H6       H        0.90070    0.82570    0.10510    1.000
    O35      O        0.26550    0.66670    0.21400    1.000
    O36      O        0.51710    0.66260    0.28210    1.000
    C69      C        0.38630    0.63540    0.24810    1.000
    C70      C        0.37880    0.56510    0.24930    1.000
    C71      C        0.49560    0.53240    0.29750    1.000
    C72      C        0.25750    0.53330    0.20260    1.000
    N28      N        0.13700    0.55730    0.15030    1.000
    N29      N        0.62300    0.56030    0.33960    1.000
    N30      N        0.35330    0.83910    0.99050    1.000
    Nd7      Nd       0.98859    0.27641    0.75539    1.000
    O37      O        0.82930    0.32620    0.64790    1.000
    O38      O        0.70020    0.23910    0.67500    1.000
    C73      C        0.71750    0.28390    0.63220    1.000
    C74      C        0.60220    0.28420    0.56430    1.000
    C75      C        0.55210    0.34160    0.53220    1.000
    C76      C        0.54880    0.22720    0.53240    1.000
    N31      N        0.59900    0.17360    0.55400    1.000
    N32      N        0.63600    0.40090    0.55190    1.000
    O39      O        0.31460    0.28950    0.82250    1.000
    O40      O        0.09090    0.31700    0.87370    1.000
    C77      C        0.25430    0.30990    0.87580    1.000
    C78      C        0.37810    0.32200    0.93890    1.000
    C79      C        0.31730    0.32520    0.00330    1.000
    C80      C        0.55890    0.32450    0.93770    1.000
    H7       H        0.59930    0.32570    0.89490    1.000
    O41      O        0.23450    0.16670    0.78600    1.000
    O42      O        0.98290    0.16260    0.71790    1.000
    C81      C        0.11370    0.13540    0.75190    1.000
    C82      C        0.12120    0.06510    0.75070    1.000
    C83      C        0.00440    0.03240    0.70250    1.000
    C84      C        0.24250    0.03330    0.79740    1.000
    N33      N        0.36300    0.05730    0.84970    1.000
    N34      N        0.87700    0.06030    0.66040    1.000
    N35      N        0.14670    0.33910    0.00950    1.000
    Nd8      Nd       0.48859    0.77641    0.75539    1.000
    O43      O        0.32930    0.82620    0.64790    1.000
    O44      O        0.20020    0.73910    0.67500    1.000
    C85      C        0.21750    0.78390    0.63220    1.000
    C86      C        0.10220    0.78420    0.56430    1.000
    C87      C        0.05210    0.84160    0.53220    1.000
    C88      C        0.04880    0.72720    0.53240    1.000
    N36      N        0.09900    0.67360    0.55400    1.000
    N37      N        0.13600    0.90090    0.55190    1.000
    O45      O        0.81460    0.78950    0.82250    1.000
    O46      O        0.59090    0.81700    0.87370    1.000
    C89      C        0.75430    0.80990    0.87580    1.000
    C90      C        0.87810    0.82200    0.93890    1.000
    C91      C        0.81730    0.82520    0.00330    1.000
    C92      C        0.05890    0.82450    0.93770    1.000
    H8       H        0.09930    0.82570    0.89490    1.000
    O47      O        0.73450    0.66670    0.78600    1.000
    O48      O        0.48290    0.66260    0.71790    1.000
    C93      C        0.61370    0.63540    0.75190    1.000
    C94      C        0.62120    0.56510    0.75070    1.000
    C95      C        0.50440    0.53240    0.70250    1.000
    C96      C        0.74250    0.53330    0.79740    1.000
    N38      N        0.86300    0.55730    0.84970    1.000
    N39      N        0.37700    0.56030    0.66040    1.000
    N40      N        0.64670    0.83910    0.00950    1.000
