# CIF file generated by openbabel 3.1.0, see https://openbabel.org
data_I
_chemical_name_common 'IBITUK_clean'
_cell_length_a 12.108
_cell_length_b 13.115
_cell_length_c 14.53
_cell_angle_alpha 73.38
_cell_angle_beta 68.48
_cell_angle_gamma 79.95
_space_group_name_H-M_alt 'P 1'
_space_group_name_Hall 'P 1'
loop_
    _symmetry_equiv_pos_as_xyz
    x,y,z
loop_
    _atom_site_label
    _atom_site_type_symbol
    _atom_site_fract_x
    _atom_site_fract_y
    _atom_site_fract_z
    _atom_site_occupancy
    Cu1      Cu       0.21127    0.27021    0.28957    1.000
    Cu2      Cu       0.78873    0.72979    0.71043    1.000
    Cu3      Cu       0.50000    0.00000    0.00000    1.000
    H1       H        0.48660    0.07370    0.83380    1.000
    H2       H        0.66670    0.09990    0.06950    1.000
    H3       H        0.89280    0.39340    0.26240    1.000
    H4       H        0.39250    0.11370    0.60210    1.000
    H5       H        0.13900    0.37860    0.92460    1.000
    H6       H        0.95030    0.26070    0.29700    1.000
    H7       H        0.16540    0.02170    0.37350    1.000
    H8       H        0.25180    0.51180    0.24640    1.000
    H9       H        0.49280    0.27480    0.22550    1.000
    H10      H        0.80820    0.01990    0.33950    1.000
    H11      H        0.75190    0.10660    0.40270    1.000
    H12      H        0.95530    0.14780    0.96120    1.000
    H13      H        0.90680    0.26110    0.91180    1.000
    H14      H        0.66130    0.49620    0.11400    1.000
    H15      H        0.64420    0.47040    0.23060    1.000
    H16      H        0.68970    0.34290    0.95820    1.000
    H17      H        0.66850    0.44170    0.00480    1.000
    H18      H        0.79550    0.41190    0.93260    1.000
    H19      H        0.72220    0.07720    0.79610    1.000
    H20      H        0.65390    0.36890    0.35170    1.000
    H21      H        0.58700    0.26440    0.39200    1.000
    H22      H        0.71180    0.26160    0.40260    1.000
    H23      H        0.91640    0.99850    0.20840    1.000
    H24      H        0.90000    0.00850    0.10390    1.000
    H25      H        0.00570    0.06030    0.10670    1.000
    H26      H        0.51340    0.92630    0.16620    1.000
    H27      H        0.33330    0.90010    0.93050    1.000
    H28      H        0.10720    0.60660    0.73760    1.000
    H29      H        0.60750    0.88630    0.39790    1.000
    H30      H        0.86100    0.62140    0.07540    1.000
    H31      H        0.04970    0.73930    0.70300    1.000
    H32      H        0.83460    0.97830    0.62650    1.000
    H33      H        0.74820    0.48820    0.75360    1.000
    H34      H        0.50720    0.72520    0.77450    1.000
    H35      H        0.19180    0.98010    0.66050    1.000
    H36      H        0.24810    0.89340    0.59730    1.000
    H37      H        0.04470    0.85220    0.03880    1.000
    H38      H        0.09320    0.73890    0.08820    1.000
    H39      H        0.33870    0.50380    0.88600    1.000
    H40      H        0.35580    0.52960    0.76940    1.000
    H41      H        0.31030    0.65710    0.04180    1.000
    H42      H        0.33150    0.55830    0.99520    1.000
    H43      H        0.20450    0.58810    0.06740    1.000
    H44      H        0.27780    0.92280    0.20390    1.000
    H45      H        0.34610    0.63110    0.64830    1.000
    H46      H        0.41300    0.73560    0.60800    1.000
    H47      H        0.28820    0.73840    0.59740    1.000
    H48      H        0.08360    0.00150    0.79160    1.000
    H49      H        0.10000    0.99150    0.89610    1.000
    H50      H        0.99430    0.93970    0.89330    1.000
    C1       C        0.69984    0.10413    0.99986    1.000
    C2       C        0.48466    0.02436    0.29882    1.000
    C3       C        0.98210    0.50169    0.10079    1.000
    C4       C        0.42103    0.08227    0.46721    1.000
    C5       C        0.48768    0.01346    0.40508    1.000
    C6       C        0.43562    0.06758    0.56083    1.000
    C7       C        0.08273    0.42775    0.95507    1.000
    C8       C        0.06689    0.42744    0.05592    1.000
    C9       C        0.95682    0.51158    0.20881    1.000
    C10      C        0.98340    0.19231    0.31769    1.000
    C11      C        0.09905    0.06088    0.35961    1.000
    C12      C        0.32526    0.47261    0.23592    1.000
    C13      C        0.45468    0.34283    0.22503    1.000
    C14      C        0.14261    0.35020    0.11132    1.000
    C15      C        0.33315    0.16869    0.43702    1.000
    C16      C        0.81301    0.09229    0.34138    1.000
    C17      C        0.82798    0.21899    0.06670    1.000
    C18      C        0.70681    0.33904    0.17108    1.000
    C19      C        0.75479    0.31269    0.07607    1.000
    C20      C        0.79237    0.17052    0.24772    1.000
    C21      C        0.84597    0.14669    0.15256    1.000
    C22      C        0.88387    0.19533    0.96307    1.000
    C23      C        0.72296    0.26755    0.25852    1.000
    C24      C        0.63394    0.44406    0.17847    1.000
    C25      C        0.72433    0.38386    0.98449    1.000
    C26      C        0.73230    0.09283    0.85095    1.000
    C27      C        0.66361    0.29287    0.36028    1.000
    C28      C        0.92418    0.04407    0.14192    1.000
    C29      C        0.30016    0.89587    0.00014    1.000
    C30      C        0.51534    0.97564    0.70118    1.000
    C31      C        0.01790    0.49831    0.89921    1.000
    C32      C        0.57897    0.91773    0.53279    1.000
    C33      C        0.51232    0.98654    0.59492    1.000
    C34      C        0.56438    0.93242    0.43917    1.000
    C35      C        0.91727    0.57225    0.04493    1.000
    C36      C        0.93311    0.57256    0.94408    1.000
    C37      C        0.04318    0.48842    0.79119    1.000
    C38      C        0.01660    0.80769    0.68231    1.000
    C39      C        0.90095    0.93912    0.64039    1.000
    C40      C        0.67474    0.52739    0.76408    1.000
    C41      C        0.54532    0.65717    0.77497    1.000
    C42      C        0.85739    0.64980    0.88868    1.000
    C43      C        0.66685    0.83131    0.56298    1.000
    C44      C        0.18699    0.90771    0.65862    1.000
    C45      C        0.17202    0.78101    0.93330    1.000
    C46      C        0.29319    0.66096    0.82892    1.000
    C47      C        0.24521    0.68731    0.92393    1.000
    C48      C        0.20763    0.82948    0.75228    1.000
    C49      C        0.15403    0.85331    0.84744    1.000
    C50      C        0.11613    0.80467    0.03693    1.000
    C51      C        0.27704    0.73245    0.74148    1.000
    C52      C        0.36606    0.55594    0.82153    1.000
    C53      C        0.27567    0.61614    0.01551    1.000
    C54      C        0.26770    0.90717    0.14905    1.000
    C55      C        0.33639    0.70713    0.63972    1.000
    C56      C        0.07582    0.95593    0.85808    1.000
    N1       N        0.33865    0.36642    0.24547    1.000
    N2       N        0.09075    0.16888    0.32640    1.000
    N3       N        0.65277    0.06965    0.94706    1.000
    N4       N        0.93098    0.10338    0.34303    1.000
    N5       N        0.80133    0.14576    0.93929    1.000
    N6       N        0.50806    0.43033    0.20388    1.000
    N7       N        0.42556    0.51545    0.21043    1.000
    N8       N        0.00509    0.01779    0.37004    1.000
    N9       N        0.82416    0.13895    0.84208    1.000
    N10      N        0.66135    0.63358    0.75453    1.000
    N11      N        0.90925    0.83112    0.67360    1.000
    N12      N        0.34723    0.93035    0.05294    1.000
    N13      N        0.06902    0.89662    0.65697    1.000
    N14      N        0.19867    0.85424    0.06071    1.000
    N15      N        0.49194    0.56967    0.79612    1.000
    N16      N        0.57444    0.48455    0.78957    1.000
    N17      N        0.99491    0.98221    0.62996    1.000
    N18      N        0.17584    0.86105    0.15792    1.000
    O1       O        0.14170    0.36806    0.19215    1.000
    O2       O        0.45206    0.09549    0.88558    1.000
    O3       O        0.29660    0.15865    0.36830    1.000
    O4       O        0.52998    0.10049    0.22951    1.000
    O5       O        0.89478    0.44600    0.28146    1.000
    O6       O        0.29986    0.24242    0.48062    1.000
    O7       O        0.43968    0.95042    0.28936    1.000
    O8       O        0.99467    0.59089    0.21634    1.000
    O9       O        0.20029    0.27310    0.07636    1.000
    O10      O        0.85830    0.63194    0.80785    1.000
    O11      O        0.54794    0.90451    0.11442    1.000
    O12      O        0.70340    0.84135    0.63170    1.000
    O13      O        0.47002    0.89951    0.77049    1.000
    O14      O        0.10522    0.55400    0.71854    1.000
    O15      O        0.70014    0.75758    0.51938    1.000
    O16      O        0.56032    0.04958    0.71064    1.000
    O17      O        0.00533    0.40911    0.78366    1.000
    O18      O        0.79971    0.72690    0.92364    1.000
