# CIF file generated by openbabel 3.1.0, see https://openbabel.org
data_I
_chemical_name_common 'image0'
_cell_length_a 28.747
_cell_length_b 14.4478
_cell_length_c 13.3233
_cell_angle_alpha 90
_cell_angle_beta 99.76
_cell_angle_gamma 90
_space_group_name_H-M_alt 'P 1'
_space_group_name_Hall 'P 1'
loop_
    _symmetry_equiv_pos_as_xyz
    x,y,z
loop_
    _atom_site_label
    _atom_site_type_symbol
    _atom_site_fract_x
    _atom_site_fract_y
    _atom_site_fract_z
    _atom_site_occupancy
    Gd1      Gd       0.18286    0.71325    0.45891    1.000
    O1       O        0.10910    0.68320    0.51500    1.000
    O2       O        0.12250    0.83160    0.49710    1.000
    O3       O        0.70610    0.07160    0.55320    1.000
    O4       O        0.76880    0.15410    0.54110    1.000
    O5       O        0.79860    0.76010    0.87020    1.000
    O6       O        0.72790    0.83020    0.83100    1.000
    O7       O        0.14000    0.77970    0.30660    1.000
    N1       N        0.90170    0.91900    0.64760    1.000
    N2       N        0.12050    0.87890    0.17480    1.000
    C1       C        0.09720    0.76670    0.52170    1.000
    C2       C        0.05210    0.78800    0.55630    1.000
    C3       C        0.02260    0.71460    0.57710    1.000
    H1       H        0.03170    0.65350    0.57010    1.000
    C4       C        0.97970    0.73450    0.60820    1.000
    H2       H        0.96030    0.68620    0.62210    1.000
    C5       C        0.96580    0.82210    0.61830    1.000
    C6       C        0.99470    0.89520    0.59770    1.000
    H3       H        0.98550    0.95610    0.60580    1.000
    C7       C        0.03680    0.87660    0.56520    1.000
    H4       H        0.05520    0.92550    0.54910    1.000
    C8       C        0.91880    0.83870    0.64700    1.000
    H5       H        0.90200    0.78800    0.67000    1.000
    C9       C        0.75030    0.08190    0.57310    1.000
    C10      C        0.78030    0.00810    0.62760    1.000
    C11      C        0.82730    0.99830    0.61530    1.000
    H6       H        0.84040    0.03940    0.57430    1.000
    C12      C        0.85460    0.92570    0.66550    1.000
    C13      C        0.83640    0.86980    0.73410    1.000
    H7       H        0.85550    0.82530    0.77120    1.000
    C14      C        0.78940    0.88000    0.74760    1.000
    C15      C        0.76100    0.94730    0.69230    1.000
    H8       H        0.72930    0.95200    0.69830    1.000
    C16      C        0.77030    0.81940    0.81960    1.000
    C17      C        0.15250    0.82060    0.24270    1.000
    C18      C        0.07450    0.89040    0.19610    1.000
    H9       H        0.06960    0.84830    0.24900    1.000
    H10      H        0.05200    0.87790    0.13580    1.000
    H11      H        0.07070    0.95280    0.21790    1.000
    C19      C        0.14130    0.92430    0.10640    1.000
    H12      H        0.17290    0.90150    0.10920    1.000
    H13      H        0.14230    0.98920    0.12180    1.000
    H14      H        0.12360    0.91450    0.03940    1.000
    O8       O        0.15300    0.78800    0.30200    1.000
    Gd2      Gd       0.68286    0.21325    0.45891    1.000
    O9       O        0.60910    0.18320    0.51500    1.000
    O10      O        0.62250    0.33160    0.49710    1.000
    O11      O        0.20610    0.57160    0.55320    1.000
    O12      O        0.26880    0.65410    0.54110    1.000
    O13      O        0.29860    0.26010    0.87020    1.000
    O14      O        0.22790    0.33020    0.83100    1.000
    O15      O        0.64000    0.27970    0.30660    1.000
    N3       N        0.40170    0.41900    0.64760    1.000
    N4       N        0.62050    0.37890    0.17480    1.000
    C20      C        0.59720    0.26670    0.52170    1.000
    C21      C        0.55210    0.28800    0.55630    1.000
    C22      C        0.52260    0.21460    0.57710    1.000
    H15      H        0.53170    0.15350    0.57010    1.000
    C23      C        0.47970    0.23450    0.60820    1.000
    H16      H        0.46030    0.18620    0.62210    1.000
    C24      C        0.46580    0.32210    0.61830    1.000
    C25      C        0.49470    0.39520    0.59770    1.000
    H17      H        0.48550    0.45610    0.60580    1.000
    C26      C        0.53680    0.37660    0.56520    1.000
    H18      H        0.55520    0.42550    0.54910    1.000
    C27      C        0.41880    0.33870    0.64700    1.000
    H19      H        0.40200    0.28800    0.67000    1.000
    C28      C        0.25030    0.58190    0.57310    1.000
    C29      C        0.28030    0.50810    0.62760    1.000
    C30      C        0.32730    0.49830    0.61530    1.000
    H20      H        0.34040    0.53940    0.57430    1.000
    C31      C        0.35460    0.42570    0.66550    1.000
    C32      C        0.33640    0.36980    0.73410    1.000
    H21      H        0.35550    0.32530    0.77120    1.000
    C33      C        0.28940    0.38000    0.74760    1.000
    C34      C        0.26100    0.44730    0.69230    1.000
    H22      H        0.22930    0.45200    0.69830    1.000
    C35      C        0.27030    0.31940    0.81960    1.000
    C36      C        0.65250    0.32060    0.24270    1.000
    C37      C        0.57450    0.39040    0.19610    1.000
    H23      H        0.56960    0.34830    0.24900    1.000
    H24      H        0.55200    0.37790    0.13580    1.000
    H25      H        0.57070    0.45280    0.21790    1.000
    C38      C        0.64130    0.42430    0.10640    1.000
    H26      H        0.67290    0.40150    0.10920    1.000
    H27      H        0.64230    0.48920    0.12180    1.000
    H28      H        0.62360    0.41450    0.03940    1.000
    O16      O        0.65300    0.28800    0.30200    1.000
    Gd3      Gd       0.81714    0.71325    0.04109    1.000
    O17      O        0.89090    0.68320    0.98500    1.000
    O18      O        0.87750    0.83160    0.00290    1.000
    O19      O        0.29390    0.07160    0.94680    1.000
    O20      O        0.23120    0.15410    0.95890    1.000
    O21      O        0.20140    0.76010    0.62980    1.000
    O22      O        0.27210    0.83020    0.66900    1.000
    O23      O        0.86000    0.77970    0.19340    1.000
    N5       N        0.09830    0.91900    0.85240    1.000
    N6       N        0.87950    0.87890    0.32520    1.000
    C39      C        0.90280    0.76670    0.97830    1.000
    C40      C        0.94790    0.78800    0.94370    1.000
    C41      C        0.97740    0.71460    0.92290    1.000
    H29      H        0.96830    0.65350    0.92990    1.000
    C42      C        0.02030    0.73450    0.89180    1.000
    H30      H        0.03970    0.68620    0.87790    1.000
    C43      C        0.03420    0.82210    0.88170    1.000
    C44      C        0.00530    0.89520    0.90230    1.000
    H31      H        0.01450    0.95610    0.89420    1.000
    C45      C        0.96320    0.87660    0.93480    1.000
    H32      H        0.94480    0.92550    0.95090    1.000
    C46      C        0.08120    0.83870    0.85300    1.000
    H33      H        0.09800    0.78800    0.83000    1.000
    C47      C        0.24970    0.08190    0.92690    1.000
    C48      C        0.21970    0.00810    0.87240    1.000
    C49      C        0.17270    0.99830    0.88470    1.000
    H34      H        0.15960    0.03940    0.92570    1.000
    C50      C        0.14540    0.92570    0.83450    1.000
    C51      C        0.16360    0.86980    0.76590    1.000
    H35      H        0.14450    0.82530    0.72880    1.000
    C52      C        0.21060    0.88000    0.75240    1.000
    C53      C        0.23900    0.94730    0.80770    1.000
    H36      H        0.27070    0.95200    0.80170    1.000
    C54      C        0.22970    0.81940    0.68040    1.000
    C55      C        0.84750    0.82060    0.25730    1.000
    C56      C        0.92550    0.89040    0.30390    1.000
    H37      H        0.93040    0.84830    0.25100    1.000
    H38      H        0.94800    0.87790    0.36420    1.000
    H39      H        0.92930    0.95280    0.28210    1.000
    C57      C        0.85870    0.92430    0.39360    1.000
    H40      H        0.82710    0.90150    0.39080    1.000
    H41      H        0.85770    0.98920    0.37820    1.000
    H42      H        0.87640    0.91450    0.46060    1.000
    O24      O        0.84700    0.78800    0.19800    1.000
    Gd4      Gd       0.31714    0.21325    0.04109    1.000
    O25      O        0.39090    0.18320    0.98500    1.000
    O26      O        0.37750    0.33160    0.00290    1.000
    O27      O        0.79390    0.57160    0.94680    1.000
    O28      O        0.73120    0.65410    0.95890    1.000
    O29      O        0.70140    0.26010    0.62980    1.000
    O30      O        0.77210    0.33020    0.66900    1.000
    O31      O        0.36000    0.27970    0.19340    1.000
    N7       N        0.59830    0.41900    0.85240    1.000
    N8       N        0.37950    0.37890    0.32520    1.000
    C58      C        0.40280    0.26670    0.97830    1.000
    C59      C        0.44790    0.28800    0.94370    1.000
    C60      C        0.47740    0.21460    0.92290    1.000
    H43      H        0.46830    0.15350    0.92990    1.000
    C61      C        0.52030    0.23450    0.89180    1.000
    H44      H        0.53970    0.18620    0.87790    1.000
    C62      C        0.53420    0.32210    0.88170    1.000
    C63      C        0.50530    0.39520    0.90230    1.000
    H45      H        0.51450    0.45610    0.89420    1.000
    C64      C        0.46320    0.37660    0.93480    1.000
    H46      H        0.44480    0.42550    0.95090    1.000
    C65      C        0.58120    0.33870    0.85300    1.000
    H47      H        0.59800    0.28800    0.83000    1.000
    C66      C        0.74970    0.58190    0.92690    1.000
    C67      C        0.71970    0.50810    0.87240    1.000
    C68      C        0.67270    0.49830    0.88470    1.000
    H48      H        0.65960    0.53940    0.92570    1.000
    C69      C        0.64540    0.42570    0.83450    1.000
    C70      C        0.66360    0.36980    0.76590    1.000
    H49      H        0.64450    0.32530    0.72880    1.000
    C71      C        0.71060    0.38000    0.75240    1.000
    C72      C        0.73900    0.44730    0.80770    1.000
    H50      H        0.77070    0.45200    0.80170    1.000
    C73      C        0.72970    0.31940    0.68040    1.000
    C74      C        0.34750    0.32060    0.25730    1.000
    C75      C        0.42550    0.39040    0.30390    1.000
    H51      H        0.43040    0.34830    0.25100    1.000
    H52      H        0.44800    0.37790    0.36420    1.000
    H53      H        0.42930    0.45280    0.28210    1.000
    C76      C        0.35870    0.42430    0.39360    1.000
    H54      H        0.32710    0.40150    0.39080    1.000
    H55      H        0.35770    0.48920    0.37820    1.000
    H56      H        0.37640    0.41450    0.46060    1.000
    O32      O        0.34700    0.28800    0.19800    1.000
    Gd5      Gd       0.81714    0.28675    0.54109    1.000
    O33      O        0.89090    0.31680    0.48500    1.000
    O34      O        0.87750    0.16840    0.50290    1.000
    O35      O        0.29390    0.92840    0.44680    1.000
    O36      O        0.23120    0.84590    0.45890    1.000
    O37      O        0.20140    0.23990    0.12980    1.000
    O38      O        0.27210    0.16980    0.16900    1.000
    O39      O        0.86000    0.22030    0.69340    1.000
    N9       N        0.09830    0.08100    0.35240    1.000
    N10      N        0.87950    0.12110    0.82520    1.000
    C77      C        0.90280    0.23330    0.47830    1.000
    C78      C        0.94790    0.21200    0.44370    1.000
    C79      C        0.97740    0.28540    0.42290    1.000
    H57      H        0.96830    0.34650    0.42990    1.000
    C80      C        0.02030    0.26550    0.39180    1.000
    H58      H        0.03970    0.31380    0.37790    1.000
    C81      C        0.03420    0.17790    0.38170    1.000
    C82      C        0.00530    0.10480    0.40230    1.000
    H59      H        0.01450    0.04390    0.39420    1.000
    C83      C        0.96320    0.12340    0.43480    1.000
    H60      H        0.94480    0.07450    0.45090    1.000
    C84      C        0.08120    0.16130    0.35300    1.000
    H61      H        0.09800    0.21200    0.33000    1.000
    C85      C        0.24970    0.91810    0.42690    1.000
    C86      C        0.21970    0.99190    0.37240    1.000
    C87      C        0.17270    0.00170    0.38470    1.000
    H62      H        0.15960    0.96060    0.42570    1.000
    C88      C        0.14540    0.07430    0.33450    1.000
    C89      C        0.16360    0.13020    0.26590    1.000
    H63      H        0.14450    0.17470    0.22880    1.000
    C90      C        0.21060    0.12000    0.25240    1.000
    C91      C        0.23900    0.05270    0.30770    1.000
    H64      H        0.27070    0.04800    0.30170    1.000
    C92      C        0.22970    0.18060    0.18040    1.000
    C93      C        0.84750    0.17940    0.75730    1.000
    C94      C        0.92550    0.10960    0.80390    1.000
    H65      H        0.93040    0.15170    0.75100    1.000
    H66      H        0.94800    0.12210    0.86420    1.000
    H67      H        0.92930    0.04720    0.78210    1.000
    C95      C        0.85870    0.07570    0.89360    1.000
    H68      H        0.82710    0.09850    0.89080    1.000
    H69      H        0.85770    0.01080    0.87820    1.000
    H70      H        0.87640    0.08550    0.96060    1.000
    O40      O        0.84700    0.21200    0.69800    1.000
    Gd6      Gd       0.31714    0.78675    0.54109    1.000
    O41      O        0.39090    0.81680    0.48500    1.000
    O42      O        0.37750    0.66840    0.50290    1.000
    O43      O        0.79390    0.42840    0.44680    1.000
    O44      O        0.73120    0.34590    0.45890    1.000
    O45      O        0.70140    0.73990    0.12980    1.000
    O46      O        0.77210    0.66980    0.16900    1.000
    O47      O        0.36000    0.72030    0.69340    1.000
    N11      N        0.59830    0.58100    0.35240    1.000
    N12      N        0.37950    0.62110    0.82520    1.000
    C96      C        0.40280    0.73330    0.47830    1.000
    C97      C        0.44790    0.71200    0.44370    1.000
    C98      C        0.47740    0.78540    0.42290    1.000
    H71      H        0.46830    0.84650    0.42990    1.000
    C99      C        0.52030    0.76550    0.39180    1.000
    H72      H        0.53970    0.81380    0.37790    1.000
    C100     C        0.53420    0.67790    0.38170    1.000
    C101     C        0.50530    0.60480    0.40230    1.000
    H73      H        0.51450    0.54390    0.39420    1.000
    C102     C        0.46320    0.62340    0.43480    1.000
    H74      H        0.44480    0.57450    0.45090    1.000
    C103     C        0.58120    0.66130    0.35300    1.000
    H75      H        0.59800    0.71200    0.33000    1.000
    C104     C        0.74970    0.41810    0.42690    1.000
    C105     C        0.71970    0.49190    0.37240    1.000
    C106     C        0.67270    0.50170    0.38470    1.000
    H76      H        0.65960    0.46060    0.42570    1.000
    C107     C        0.64540    0.57430    0.33450    1.000
    C108     C        0.66360    0.63020    0.26590    1.000
    H77      H        0.64450    0.67470    0.22880    1.000
    C109     C        0.71060    0.62000    0.25240    1.000
    C110     C        0.73900    0.55270    0.30770    1.000
    H78      H        0.77070    0.54800    0.30170    1.000
    C111     C        0.72970    0.68060    0.18040    1.000
    C112     C        0.34750    0.67940    0.75730    1.000
    C113     C        0.42550    0.60960    0.80390    1.000
    H79      H        0.43040    0.65170    0.75100    1.000
    H80      H        0.44800    0.62210    0.86420    1.000
    H81      H        0.42930    0.54720    0.78210    1.000
    C114     C        0.35870    0.57570    0.89360    1.000
    H82      H        0.32710    0.59850    0.89080    1.000
    H83      H        0.35770    0.51080    0.87820    1.000
    H84      H        0.37640    0.58550    0.96060    1.000
    O48      O        0.34700    0.71200    0.69800    1.000
    Gd7      Gd       0.18286    0.28675    0.95891    1.000
    O49      O        0.10910    0.31680    0.01500    1.000
    O50      O        0.12250    0.16840    0.99710    1.000
    O51      O        0.70610    0.92840    0.05320    1.000
    O52      O        0.76880    0.84590    0.04110    1.000
    O53      O        0.79860    0.23990    0.37020    1.000
    O54      O        0.72790    0.16980    0.33100    1.000
    O55      O        0.14000    0.22030    0.80660    1.000
    N13      N        0.90170    0.08100    0.14760    1.000
    N14      N        0.12050    0.12110    0.67480    1.000
    C115     C        0.09720    0.23330    0.02170    1.000
    C116     C        0.05210    0.21200    0.05630    1.000
    C117     C        0.02260    0.28540    0.07710    1.000
    H85      H        0.03170    0.34650    0.07010    1.000
    C118     C        0.97970    0.26550    0.10820    1.000
    H86      H        0.96030    0.31380    0.12210    1.000
    C119     C        0.96580    0.17790    0.11830    1.000
    C120     C        0.99470    0.10480    0.09770    1.000
    H87      H        0.98550    0.04390    0.10580    1.000
    C121     C        0.03680    0.12340    0.06520    1.000
    H88      H        0.05520    0.07450    0.04910    1.000
    C122     C        0.91880    0.16130    0.14700    1.000
    H89      H        0.90200    0.21200    0.17000    1.000
    C123     C        0.75030    0.91810    0.07310    1.000
    C124     C        0.78030    0.99190    0.12760    1.000
    C125     C        0.82730    0.00170    0.11530    1.000
    H90      H        0.84040    0.96060    0.07430    1.000
    C126     C        0.85460    0.07430    0.16550    1.000
    C127     C        0.83640    0.13020    0.23410    1.000
    H91      H        0.85550    0.17470    0.27120    1.000
    C128     C        0.78940    0.12000    0.24760    1.000
    C129     C        0.76100    0.05270    0.19230    1.000
    H92      H        0.72930    0.04800    0.19830    1.000
    C130     C        0.77030    0.18060    0.31960    1.000
    C131     C        0.15250    0.17940    0.74270    1.000
    C132     C        0.07450    0.10960    0.69610    1.000
    H93      H        0.06960    0.15170    0.74900    1.000
    H94      H        0.05200    0.12210    0.63580    1.000
    H95      H        0.07070    0.04720    0.71790    1.000
    C133     C        0.14130    0.07570    0.60640    1.000
    H96      H        0.17290    0.09850    0.60920    1.000
    H97      H        0.14230    0.01080    0.62180    1.000
    H98      H        0.12360    0.08550    0.53940    1.000
    O56      O        0.15300    0.21200    0.80200    1.000
    Gd8      Gd       0.68286    0.78675    0.95891    1.000
    O57      O        0.60910    0.81680    0.01500    1.000
    O58      O        0.62250    0.66840    0.99710    1.000
    O59      O        0.20610    0.42840    0.05320    1.000
    O60      O        0.26880    0.34590    0.04110    1.000
    O61      O        0.29860    0.73990    0.37020    1.000
    O62      O        0.22790    0.66980    0.33100    1.000
    O63      O        0.64000    0.72030    0.80660    1.000
    N15      N        0.40170    0.58100    0.14760    1.000
    N16      N        0.62050    0.62110    0.67480    1.000
    C134     C        0.59720    0.73330    0.02170    1.000
    C135     C        0.55210    0.71200    0.05630    1.000
    C136     C        0.52260    0.78540    0.07710    1.000
    H99      H        0.53170    0.84650    0.07010    1.000
    C137     C        0.47970    0.76550    0.10820    1.000
    H100     H        0.46030    0.81380    0.12210    1.000
    C138     C        0.46580    0.67790    0.11830    1.000
    C139     C        0.49470    0.60480    0.09770    1.000
    H101     H        0.48550    0.54390    0.10580    1.000
    C140     C        0.53680    0.62340    0.06520    1.000
    H102     H        0.55520    0.57450    0.04910    1.000
    C141     C        0.41880    0.66130    0.14700    1.000
    H103     H        0.40200    0.71200    0.17000    1.000
    C142     C        0.25030    0.41810    0.07310    1.000
    C143     C        0.28030    0.49190    0.12760    1.000
    C144     C        0.32730    0.50170    0.11530    1.000
    H104     H        0.34040    0.46060    0.07430    1.000
    C145     C        0.35460    0.57430    0.16550    1.000
    C146     C        0.33640    0.63020    0.23410    1.000
    H105     H        0.35550    0.67470    0.27120    1.000
    C147     C        0.28940    0.62000    0.24760    1.000
    C148     C        0.26100    0.55270    0.19230    1.000
    H106     H        0.22930    0.54800    0.19830    1.000
    C149     C        0.27030    0.68060    0.31960    1.000
    C150     C        0.65250    0.67940    0.74270    1.000
    C151     C        0.57450    0.60960    0.69610    1.000
    H107     H        0.56960    0.65170    0.74900    1.000
    H108     H        0.55200    0.62210    0.63580    1.000
    H109     H        0.57070    0.54720    0.71790    1.000
    C152     C        0.64130    0.57570    0.60640    1.000
    H110     H        0.67290    0.59850    0.60920    1.000
    H111     H        0.64230    0.51080    0.62180    1.000
    H112     H        0.62360    0.58550    0.53940    1.000
    O64      O        0.65300    0.71200    0.80200    1.000
