# CIF file generated by openbabel 3.1.0, see https://openbabel.org
data_I
_chemical_name_common 'image0'
_cell_length_a 12.7745
_cell_length_b 14.18
_cell_length_c 14.5221
_cell_angle_alpha 70.86
_cell_angle_beta 88.158
_cell_angle_gamma 73.63
_space_group_name_H-M_alt 'P 1'
_space_group_name_Hall 'P 1'
loop_
    _symmetry_equiv_pos_as_xyz
    x,y,z
loop_
    _atom_site_label
    _atom_site_type_symbol
    _atom_site_fract_x
    _atom_site_fract_y
    _atom_site_fract_z
    _atom_site_occupancy
    C1       C        0.54670    0.10320    0.53760    1.000
    C2       C        0.56960    0.06740    0.62560    1.000
    C3       C        0.59680    0.02960    0.73040    1.000
    C4       C        0.53990    0.08380    0.78770    1.000
    H1       H        0.48220    0.14350    0.76020    1.000
    C5       C        0.56880    0.04930    0.88690    1.000
    H2       H        0.53170    0.08800    0.92490    1.000
    C6       C        0.64910    0.96140    0.92960    1.000
    H3       H        0.66360    0.93690    0.99700    1.000
    C7       C        0.71110    0.90660    0.87130    1.000
    H4       H        0.76920    0.84740    0.89950    1.000
    C8       C        0.68450    0.94180    0.77150    1.000
    H5       H        0.72540    0.90670    0.73230    1.000
    C9       C        0.41410    0.40340    0.54940    1.000
    C10      C        0.32070    0.45630    0.52230    1.000
    C11      C        0.20810    0.51870    0.49680    1.000
    C12      C        0.16520    0.56250    0.40120    1.000
    H6       H        0.20910    0.55180    0.35110    1.000
    C13      C        0.05780    0.62210    0.37970    1.000
    H7       H        0.02940    0.65140    0.31520    1.000
    C14      C        0.99260    0.63830    0.45310    1.000
    H8       H        0.91980    0.67770    0.43760    1.000
    C15      C        0.03220    0.59760    0.54900    1.000
    H9       H        0.98740    0.61070    0.59780    1.000
    C16      C        0.14120    0.53610    0.57230    1.000
    H10      H        0.16920    0.50700    0.63700    1.000
    C17      C        0.81400    0.21640    0.54250    1.000
    H11      H        0.79870    0.25530    0.47660    1.000
    C18      C        0.79550    0.15300    0.69560    1.000
    H12      H        0.76510    0.14010    0.75590    1.000
    C19      C        0.89910    0.10630    0.67890    1.000
    H13      H        0.95210    0.05550    0.72520    1.000
    C20      C        0.00890    0.12360    0.52690    1.000
    H14      H        0.06910    0.13610    0.55540    1.000
    H15      H        0.99430    0.17050    0.45990    1.000
    C21      C        0.04280    0.01190    0.52690    1.000
    H16      H        0.05470    0.96490    0.59390    1.000
    H17      H        0.11150    0.99900    0.49620    1.000
    C22      C        0.53440    0.17740    0.16910    1.000
    H18      H        0.57690    0.10860    0.18380    1.000
    C23      C        0.49620    0.24510    0.07710    1.000
    H19      H        0.50910    0.23230    0.01830    1.000
    C24      C        0.44080    0.32170    0.18500    1.000
    H20      H        0.40710    0.37240    0.21250    1.000
    C25      C        0.38450    0.43320    0.01240    1.000
    H21      H        0.33040    0.47810    0.03960    1.000
    H22      H        0.34700    0.41890    0.96370    1.000
    C26      C        0.46600    0.48940    0.96350    1.000
    H23      H        0.42720    0.55520    0.91520    1.000
    H24      H        0.51500    0.44800    0.92970    1.000
    C27      C        0.23550    0.27750    0.35100    1.000
    C28      C        0.16160    0.33680    0.25720    1.000
    C29      C        0.26300    0.10200    0.67890    1.000
    C30      C        0.20250    0.07230    0.77430    1.000
    C31      C        0.32830    0.61780    0.71320    1.000
    C32      C        0.24180    0.70340    0.73880    1.000
    C33      C        0.64400    0.35560    0.81250    1.000
    C34      C        0.74460    0.30280    0.88580    1.000
    N1       N        0.74400    0.22110    0.61020    1.000
    N2       N        0.91100    0.14760    0.58150    1.000
    N3       N        0.50060    0.22630    0.23500    1.000
    N4       N        0.43540    0.33520    0.09000    1.000
    O1       O        0.28800    0.32640    0.37850    1.000
    O2       O        0.23330    0.18520    0.38920    1.000
    O3       O        0.27660    0.19150    0.65560    1.000
    O4       O        0.29020    0.03540    0.63820    1.000
    O5       O        0.38630    0.64820    0.64440    1.000
    O6       O        0.32720    0.52820    0.75900    1.000
    O7       O        0.64010    0.44310    0.75630    1.000
    O8       O        0.58070    0.30270    0.81880    1.000
    F1       F        0.13970    0.43900    0.23350    1.000
    F2       F        0.06680    0.31520    0.26190    1.000
    F3       F        0.20780    0.31360    0.18200    1.000
    F4       F        0.16210    0.99380    0.78220    1.000
    F5       F        0.27160    0.04310    0.85160    1.000
    F6       F        0.11850    0.15030    0.77880    1.000
    F7       F        0.25540    0.69900    0.82900    1.000
    F8       F        0.24660    0.80070    0.68700    1.000
    F9       F        0.14170    0.70710    0.71140    1.000
    F10      F        0.83550    0.29370    0.84470    1.000
    F11      F        0.75630    0.20380    0.93250    1.000
    F12      F        0.72190    0.32100    0.96370    1.000
    Ag1      Ag       0.37743    0.05693    0.49154    1.000
    Ag2      Ag       0.53222    0.16917    0.38830    1.000
    Ag3      Ag       0.38929    0.24682    0.52866    1.000
    Ag4      Ag       0.57744    0.31207    0.58077    1.000
    Ag5      Ag       0.42368    0.38225    0.71643    1.000
    Ag6      Ag       0.53858    0.53124    0.61184    1.000
    F13      F        0.21400    0.66600    0.83700    1.000
    F14      F        0.76130    0.35600    0.93900    1.000
    C35      C        0.45330    0.89680    0.46240    1.000
    C36      C        0.43040    0.93260    0.37440    1.000
    C37      C        0.40320    0.97040    0.26960    1.000
    C38      C        0.46010    0.91620    0.21230    1.000
    H25      H        0.51780    0.85650    0.23980    1.000
    C39      C        0.43120    0.95070    0.11310    1.000
    H26      H        0.46830    0.91200    0.07510    1.000
    C40      C        0.35090    0.03860    0.07040    1.000
    H27      H        0.33640    0.06310    0.00300    1.000
    C41      C        0.28890    0.09340    0.12870    1.000
    H28      H        0.23080    0.15260    0.10050    1.000
    C42      C        0.31550    0.05820    0.22850    1.000
    H29      H        0.27460    0.09330    0.26770    1.000
    C43      C        0.58590    0.59660    0.45060    1.000
    C44      C        0.67930    0.54370    0.47770    1.000
    C45      C        0.79190    0.48130    0.50320    1.000
    C46      C        0.83480    0.43750    0.59880    1.000
    H30      H        0.79090    0.44820    0.64890    1.000
    C47      C        0.94220    0.37790    0.62030    1.000
    H31      H        0.97060    0.34860    0.68480    1.000
    C48      C        0.00740    0.36170    0.54690    1.000
    H32      H        0.08020    0.32230    0.56240    1.000
    C49      C        0.96780    0.40240    0.45100    1.000
    H33      H        0.01260    0.38930    0.40220    1.000
    C50      C        0.85880    0.46390    0.42770    1.000
    H34      H        0.83080    0.49300    0.36300    1.000
    C51      C        0.18600    0.78360    0.45750    1.000
    H35      H        0.20130    0.74470    0.52340    1.000
    C52      C        0.20450    0.84700    0.30440    1.000
    H36      H        0.23490    0.85990    0.24410    1.000
    C53      C        0.10090    0.89370    0.32110    1.000
    H37      H        0.04790    0.94450    0.27480    1.000
    C54      C        0.99110    0.87640    0.47310    1.000
    H38      H        0.93090    0.86390    0.44460    1.000
    H39      H        0.00570    0.82950    0.54010    1.000
    C55      C        0.95720    0.98810    0.47310    1.000
    H40      H        0.94530    0.03510    0.40610    1.000
    H41      H        0.88850    0.00100    0.50380    1.000
    C56      C        0.46560    0.82260    0.83090    1.000
    H42      H        0.42310    0.89140    0.81620    1.000
    C57      C        0.50380    0.75490    0.92290    1.000
    H43      H        0.49090    0.76770    0.98170    1.000
    C58      C        0.55920    0.67830    0.81500    1.000
    H44      H        0.59290    0.62760    0.78750    1.000
    C59      C        0.61550    0.56680    0.98760    1.000
    H45      H        0.66960    0.52190    0.96040    1.000
    H46      H        0.65300    0.58110    0.03630    1.000
    C60      C        0.53400    0.51060    0.03650    1.000
    H47      H        0.57280    0.44480    0.08480    1.000
    H48      H        0.48500    0.55200    0.07030    1.000
    C61      C        0.76450    0.72250    0.64900    1.000
    C62      C        0.83840    0.66320    0.74280    1.000
    C63      C        0.73700    0.89800    0.32110    1.000
    C64      C        0.79750    0.92770    0.22570    1.000
    C65      C        0.67170    0.38220    0.28680    1.000
    C66      C        0.75820    0.29660    0.26120    1.000
    C67      C        0.35600    0.64440    0.18750    1.000
    C68      C        0.25540    0.69720    0.11420    1.000
    N5       N        0.25600    0.77890    0.38980    1.000
    N6       N        0.08900    0.85240    0.41850    1.000
    N7       N        0.49940    0.77370    0.76500    1.000
    N8       N        0.56460    0.66480    0.91000    1.000
    O9       O        0.71200    0.67360    0.62150    1.000
    O10      O        0.76670    0.81480    0.61080    1.000
    O11      O        0.72340    0.80850    0.34440    1.000
    O12      O        0.70980    0.96460    0.36180    1.000
    O13      O        0.61370    0.35180    0.35560    1.000
    O14      O        0.67280    0.47180    0.24100    1.000
    O15      O        0.35990    0.55690    0.24370    1.000
    O16      O        0.41930    0.69730    0.18120    1.000
    F15      F        0.86030    0.56100    0.76650    1.000
    F16      F        0.93320    0.68480    0.73810    1.000
    F17      F        0.79220    0.68640    0.81800    1.000
    F18      F        0.83790    0.00620    0.21780    1.000
    F19      F        0.72840    0.95690    0.14840    1.000
    F20      F        0.88150    0.84970    0.22120    1.000
    F21      F        0.74460    0.30100    0.17100    1.000
    F22      F        0.75340    0.19930    0.31300    1.000
    F23      F        0.85830    0.29290    0.28860    1.000
    F24      F        0.16450    0.70630    0.15530    1.000
    F25      F        0.24370    0.79620    0.06750    1.000
    F26      F        0.27810    0.67900    0.03630    1.000
    Ag7      Ag       0.62257    0.94307    0.50846    1.000
    Ag8      Ag       0.46778    0.83083    0.61170    1.000
    Ag9      Ag       0.61071    0.75318    0.47134    1.000
    Ag10     Ag       0.42256    0.68793    0.41923    1.000
    Ag11     Ag       0.57632    0.61775    0.28357    1.000
    Ag12     Ag       0.46142    0.46876    0.38816    1.000
    F27      F        0.78600    0.33400    0.16300    1.000
    F28      F        0.23870    0.64400    0.06100    1.000
