# CIF file generated by openbabel 3.1.0, see https://openbabel.org
data_I
_chemical_name_common 'NIKDIU_clean'
_cell_length_a 10.441
_cell_length_b 10.441
_cell_length_c 14.13
_cell_angle_alpha 83.1108
_cell_angle_beta 83.1108
_cell_angle_gamma 85.6142
_space_group_name_H-M_alt 'P 1'
_space_group_name_Hall 'P 1'
loop_
    _symmetry_equiv_pos_as_xyz
    x,y,z
loop_
    _atom_site_label
    _atom_site_type_symbol
    _atom_site_fract_x
    _atom_site_fract_y
    _atom_site_fract_z
    _atom_site_occupancy
    Eu1      Eu       0.76630    0.23370    0.75000    1.000
    Eu2      Eu       0.23370    0.76630    0.25000    1.000
    H1       H        0.17650    0.28290    0.96950    1.000
    H2       H        0.73770    0.80410    0.90870    1.000
    H3       H        0.68280    0.64640    0.91160    1.000
    H4       H        0.88300    0.56100    0.85310    1.000
    H5       H        0.86900    0.71540    0.78780    1.000
    H6       H        0.18950    0.68990    0.83360    1.000
    H7       H        0.08140    0.65320    0.75690    1.000
    H8       H        0.21060    0.46460    0.80030    1.000
    H9       H        0.04960    0.44460    0.85400    1.000
    H10      H        0.27320    0.51960    0.94530    1.000
    H11      H        0.11460    0.50320    0.99930    1.000
    H12      H        0.67110    0.69030    0.16100    1.000
    H13      H        0.57650    0.68210    0.06910    1.000
    H14      H        0.63240    0.90500    0.00710    1.000
    H15      H        0.70840    0.91000    0.11080    1.000
    H16      H        0.91430    0.88230    0.91350    1.000
    H17      H        0.03140    0.87600    0.81320    1.000
    H18      H        0.11690    0.96770    0.93440    1.000
    H19      H        0.20080    0.81860    0.91720    1.000
    H20      H        0.71710    0.82350    0.53050    1.000
    H21      H        0.19590    0.26230    0.59130    1.000
    H22      H        0.35360    0.31720    0.58840    1.000
    H23      H        0.43900    0.11700    0.64690    1.000
    H24      H        0.28460    0.13100    0.71220    1.000
    H25      H        0.31010    0.81050    0.66640    1.000
    H26      H        0.34680    0.91860    0.74310    1.000
    H27      H        0.53540    0.78940    0.69970    1.000
    H28      H        0.55540    0.95040    0.64600    1.000
    H29      H        0.48040    0.72680    0.55470    1.000
    H30      H        0.49680    0.88540    0.50070    1.000
    H31      H        0.30970    0.32890    0.33900    1.000
    H32      H        0.31790    0.42350    0.43090    1.000
    H33      H        0.09500    0.36760    0.49290    1.000
    H34      H        0.09000    0.29160    0.38920    1.000
    H35      H        0.11770    0.08570    0.58650    1.000
    H36      H        0.12400    0.96860    0.68680    1.000
    H37      H        0.03230    0.88310    0.56560    1.000
    H38      H        0.18140    0.79920    0.58280    1.000
    H39      H        0.82350    0.71710    0.03050    1.000
    H40      H        0.26230    0.19590    0.09130    1.000
    H41      H        0.31720    0.35360    0.08840    1.000
    H42      H        0.11700    0.43900    0.14690    1.000
    H43      H        0.13100    0.28460    0.21220    1.000
    H44      H        0.81050    0.31010    0.16640    1.000
    H45      H        0.91860    0.34680    0.24310    1.000
    H46      H        0.78940    0.53540    0.19970    1.000
    H47      H        0.95040    0.55540    0.14600    1.000
    H48      H        0.72680    0.48040    0.05470    1.000
    H49      H        0.88540    0.49680    0.00070    1.000
    H50      H        0.32890    0.30970    0.83900    1.000
    H51      H        0.42350    0.31790    0.93090    1.000
    H52      H        0.36760    0.09500    0.99290    1.000
    H53      H        0.29160    0.09000    0.88920    1.000
    H54      H        0.08570    0.11770    0.08650    1.000
    H55      H        0.96860    0.12400    0.18680    1.000
    H56      H        0.88310    0.03230    0.06560    1.000
    H57      H        0.79920    0.18140    0.08280    1.000
    H58      H        0.28290    0.17650    0.46950    1.000
    H59      H        0.80410    0.73770    0.40870    1.000
    H60      H        0.64640    0.68280    0.41160    1.000
    H61      H        0.56100    0.88300    0.35310    1.000
    H62      H        0.71540    0.86900    0.28780    1.000
    H63      H        0.68990    0.18950    0.33360    1.000
    H64      H        0.65320    0.08140    0.25690    1.000
    H65      H        0.46460    0.21060    0.30030    1.000
    H66      H        0.44460    0.04960    0.35400    1.000
    H67      H        0.51960    0.27320    0.44530    1.000
    H68      H        0.50320    0.11460    0.49930    1.000
    H69      H        0.69030    0.67110    0.66100    1.000
    H70      H        0.68210    0.57650    0.56910    1.000
    H71      H        0.90500    0.63240    0.50710    1.000
    H72      H        0.91000    0.70840    0.61080    1.000
    H73      H        0.88230    0.91430    0.41350    1.000
    H74      H        0.87600    0.03140    0.31320    1.000
    H75      H        0.96770    0.11690    0.43440    1.000
    H76      H        0.81860    0.20080    0.41720    1.000
    C1       C        0.24300    0.30100    0.07600    1.000
    C2       C        0.12300    0.33900    0.14500    1.000
    C3       C        0.89600    0.36200    0.17400    1.000
    C4       C        0.86300    0.50500    0.14900    1.000
    C5       C        0.81100    0.52900    0.05500    1.000
    C6       C        0.34000    0.28000    0.91100    1.000
    C7       C        0.36300    0.13300    0.92100    1.000
    C8       C        0.49100    0.09500    0.86500    1.000
    C9       C        0.00200    0.83600    0.88100    1.000
    C10      C        0.10500    0.86500    0.94200    1.000
    C11      C        0.08100    0.82900    0.05000    1.000
    C12      C        0.69900    0.75700    0.42400    1.000
    C13      C        0.66100    0.87700    0.35500    1.000
    C14      C        0.63800    0.10400    0.32600    1.000
    C15      C        0.49500    0.13700    0.35100    1.000
    C16      C        0.47100    0.18900    0.44500    1.000
    C17      C        0.72000    0.66000    0.58900    1.000
    C18      C        0.86700    0.63700    0.57900    1.000
    C19      C        0.90500    0.50900    0.63500    1.000
    C20      C        0.16400    0.99800    0.61900    1.000
    C21      C        0.13500    0.89500    0.55800    1.000
    C22      C        0.17100    0.91900    0.45000    1.000
    C23      C        0.75700    0.69900    0.92400    1.000
    C24      C        0.87700    0.66100    0.85500    1.000
    C25      C        0.10400    0.63800    0.82600    1.000
    C26      C        0.13700    0.49500    0.85100    1.000
    C27      C        0.18900    0.47100    0.94500    1.000
    C28      C        0.66000    0.72000    0.08900    1.000
    C29      C        0.63700    0.86700    0.07900    1.000
    C30      C        0.50900    0.90500    0.13500    1.000
    C31      C        0.99800    0.16400    0.11900    1.000
    C32      C        0.89500    0.13500    0.05800    1.000
    C33      C        0.91900    0.17100    0.95000    1.000
    C34      C        0.30100    0.24300    0.57600    1.000
    C35      C        0.33900    0.12300    0.64500    1.000
    C36      C        0.36200    0.89600    0.67400    1.000
    C37      C        0.50500    0.86300    0.64900    1.000
    C38      C        0.52900    0.81100    0.55500    1.000
    C39      C        0.28000    0.34000    0.41100    1.000
    C40      C        0.13300    0.36300    0.42100    1.000
    C41      C        0.09500    0.49100    0.36500    1.000
    C42      C        0.83600    0.00200    0.38100    1.000
    C43      C        0.86500    0.10500    0.44200    1.000
    C44      C        0.82900    0.08100    0.55000    1.000
    N1       N        0.22370    0.32770    0.97400    1.000
    N2       N        0.00400    0.30800    0.11300    1.000
    N3       N        0.67230    0.77630    0.52600    1.000
    N4       N        0.69200    0.99600    0.38700    1.000
    N5       N        0.77630    0.67230    0.02600    1.000
    N6       N        0.99600    0.69200    0.88700    1.000
    N7       N        0.32770    0.22370    0.47400    1.000
    N8       N        0.30800    0.00400    0.61300    1.000
    O1       O        0.47780    0.02380    0.13600    1.000
    O2       O        0.55800    0.18400    0.82300    1.000
    O3       O        0.96590    0.80190    0.08640    1.000
    O4       O        0.18600    0.77600    0.09200    1.000
    O5       O        0.97620    0.52220    0.36400    1.000
    O6       O        0.81600    0.44200    0.67700    1.000
    O7       O        0.19810    0.03410    0.41360    1.000
    O8       O        0.22400    0.81400    0.40800    1.000
    O9       O        0.52220    0.97620    0.86400    1.000
    O10      O        0.44200    0.81600    0.17700    1.000
    O11      O        0.03410    0.19810    0.91360    1.000
    O12      O        0.81400    0.22400    0.90800    1.000
    O13      O        0.02380    0.47780    0.63600    1.000
    O14      O        0.18400    0.55800    0.32300    1.000
    O15      O        0.80190    0.96590    0.58640    1.000
    O16      O        0.77600    0.18600    0.59200    1.000
