# CIF file generated by openbabel 3.1.0, see https://openbabel.org
data_I
_chemical_name_common 'SARNOQ_clean'
_cell_length_a 14.6206
_cell_length_b 14.6206
_cell_length_c 14.6206
_cell_angle_alpha 109.38
_cell_angle_beta 109.38
_cell_angle_gamma 109.38
_space_group_name_H-M_alt 'P 1'
_space_group_name_Hall 'P 1'
loop_
    _symmetry_equiv_pos_as_xyz
    x,y,z
loop_
    _atom_site_label
    _atom_site_type_symbol
    _atom_site_fract_x
    _atom_site_fract_y
    _atom_site_fract_z
    _atom_site_occupancy
    Zn1      Zn       0.19922    0.44964    0.69352    1.000
    Zn2      Zn       0.69352    0.19922    0.44964    1.000
    Zn3      Zn       0.44964    0.69352    0.19922    1.000
    Zn4      Zn       0.80078    0.55036    0.30648    1.000
    Zn5      Zn       0.30648    0.80078    0.55036    1.000
    Zn6      Zn       0.55036    0.30648    0.80078    1.000
    H1       H        0.69280    0.69430    0.06000    1.000
    H2       H        0.06000    0.69280    0.69430    1.000
    H3       H        0.69430    0.06000    0.69280    1.000
    H4       H        0.30720    0.30570    0.94000    1.000
    H5       H        0.94000    0.30720    0.30570    1.000
    H6       H        0.30570    0.94000    0.30720    1.000
    C1       C        0.44952    0.58276    0.94952    1.000
    C2       C        0.47143    0.51628    0.87589    1.000
    C3       C        0.34609    0.57077    0.94794    1.000
    C4       C        0.39848    0.41187    0.77005    1.000
    C5       C        0.94952    0.44952    0.58276    1.000
    C6       C        0.87589    0.47143    0.51628    1.000
    C7       C        0.94794    0.34609    0.57077    1.000
    C8       C        0.77005    0.39848    0.41187    1.000
    C9       C        0.58276    0.94952    0.44952    1.000
    C10      C        0.51628    0.87589    0.47143    1.000
    C11      C        0.57077    0.94794    0.34609    1.000
    C12      C        0.41187    0.77005    0.39848    1.000
    C13      C        0.55048    0.41724    0.05048    1.000
    C14      C        0.52857    0.48372    0.12411    1.000
    C15      C        0.65391    0.42923    0.05206    1.000
    C16      C        0.60152    0.58813    0.22995    1.000
    C17      C        0.05048    0.55048    0.41724    1.000
    C18      C        0.12411    0.52857    0.48372    1.000
    C19      C        0.05206    0.65391    0.42923    1.000
    C20      C        0.22995    0.60152    0.58813    1.000
    C21      C        0.41724    0.05048    0.55048    1.000
    C22      C        0.48372    0.12411    0.52857    1.000
    C23      C        0.42923    0.05206    0.65391    1.000
    C24      C        0.58813    0.22995    0.60152    1.000
    N1       N        0.54651    0.66707    0.03822    1.000
    N2       N        0.62230    0.64990    0.01530    1.000
    N3       N        0.58229    0.56107    0.92034    1.000
    N4       N        0.42720    0.33521    0.73459    1.000
    N5       N        0.34050    0.25380    0.63180    1.000
    N6       N        0.26270    0.27970    0.60690    1.000
    N7       N        0.29633    0.37894    0.69303    1.000
    N8       N        0.33755    0.60937    0.03878    1.000
    N9       N        0.22973    0.58146    0.00321    1.000
    N10      N        0.17501    0.52836    0.89533    1.000
    N11      N        0.24704    0.51978    0.85738    1.000
    N12      N        0.03822    0.54651    0.66707    1.000
    N13      N        0.01530    0.62230    0.64990    1.000
    N14      N        0.92034    0.58229    0.56107    1.000
    N15      N        0.73459    0.42720    0.33521    1.000
    N16      N        0.63180    0.34050    0.25380    1.000
    N17      N        0.60690    0.26270    0.27970    1.000
    N18      N        0.69303    0.29633    0.37894    1.000
    N19      N        0.03878    0.33755    0.60937    1.000
    N20      N        0.00321    0.22973    0.58146    1.000
    N21      N        0.89533    0.17501    0.52836    1.000
    N22      N        0.85738    0.24704    0.51978    1.000
    N23      N        0.66707    0.03822    0.54651    1.000
    N24      N        0.64990    0.01530    0.62230    1.000
    N25      N        0.56107    0.92034    0.58229    1.000
    N26      N        0.33521    0.73459    0.42720    1.000
    N27      N        0.25380    0.63180    0.34050    1.000
    N28      N        0.27970    0.60690    0.26270    1.000
    N29      N        0.37894    0.69303    0.29633    1.000
    N30      N        0.60937    0.03878    0.33755    1.000
    N31      N        0.58146    0.00321    0.22973    1.000
    N32      N        0.52836    0.89533    0.17501    1.000
    N33      N        0.51978    0.85738    0.24704    1.000
    N34      N        0.45349    0.33293    0.96178    1.000
    N35      N        0.37770    0.35010    0.98470    1.000
    N36      N        0.41771    0.43893    0.07966    1.000
    N37      N        0.57280    0.66479    0.26541    1.000
    N38      N        0.65950    0.74620    0.36820    1.000
    N39      N        0.73730    0.72030    0.39310    1.000
    N40      N        0.70367    0.62106    0.30697    1.000
    N41      N        0.66245    0.39063    0.96122    1.000
    N42      N        0.77027    0.41854    0.99679    1.000
    N43      N        0.82499    0.47164    0.10467    1.000
    N44      N        0.75296    0.48022    0.14262    1.000
    N45      N        0.96178    0.45349    0.33293    1.000
    N46      N        0.98470    0.37770    0.35010    1.000
    N47      N        0.07966    0.41771    0.43893    1.000
    N48      N        0.26541    0.57280    0.66479    1.000
    N49      N        0.36820    0.65950    0.74620    1.000
    N50      N        0.39310    0.73730    0.72030    1.000
    N51      N        0.30697    0.70367    0.62106    1.000
    N52      N        0.96122    0.66245    0.39063    1.000
    N53      N        0.99679    0.77027    0.41854    1.000
    N54      N        0.10467    0.82499    0.47164    1.000
    N55      N        0.14262    0.75296    0.48022    1.000
    N56      N        0.33293    0.96178    0.45349    1.000
    N57      N        0.35010    0.98470    0.37770    1.000
    N58      N        0.43893    0.07966    0.41771    1.000
    N59      N        0.66479    0.26541    0.57280    1.000
    N60      N        0.74620    0.36820    0.65950    1.000
    N61      N        0.72030    0.39310    0.73730    1.000
    N62      N        0.62106    0.30697    0.70367    1.000
    N63      N        0.39063    0.96122    0.66245    1.000
    N64      N        0.41854    0.99679    0.77027    1.000
    N65      N        0.47164    0.10467    0.82499    1.000
    N66      N        0.48022    0.14262    0.75296    1.000
