# CIF file generated by openbabel 3.1.0, see https://openbabel.org
data_I
_chemical_name_common 'EMICUZ_clean'
_cell_length_a 9.22
_cell_length_b 10.75
_cell_length_c 18.831
_cell_angle_alpha 90
_cell_angle_beta 90
_cell_angle_gamma 104.087
_space_group_name_H-M_alt 'P 1'
_space_group_name_Hall 'P 1'
loop_
    _symmetry_equiv_pos_as_xyz
    x,y,z
loop_
    _atom_site_label
    _atom_site_type_symbol
    _atom_site_fract_x
    _atom_site_fract_y
    _atom_site_fract_z
    _atom_site_occupancy
    Cd1      Cd       0.50825    0.83577    0.38166    1.000
    Cd2      Cd       0.49175    0.66423    0.88166    1.000
    Cd3      Cd       0.49175    0.16423    0.61834    1.000
    Cd4      Cd       0.50825    0.33577    0.11834    1.000
    H1       H        0.64370    0.34890    0.36840    1.000
    H2       H        0.05310    0.51930    0.29380    1.000
    H3       H        0.93920    0.13840    0.32640    1.000
    H4       H        0.01260    0.70330    0.35160    1.000
    H5       H        0.86960    0.86530    0.36160    1.000
    H6       H        0.58220    0.53800    0.32820    1.000
    H7       H        0.21600    0.18610    0.35570    1.000
    H8       H        0.43780    0.20310    0.28280    1.000
    H9       H        0.21090    0.43010    0.19840    1.000
    H10      H        0.18970    0.42090    0.45130    1.000
    H11      H        0.01950    0.71830    0.50530    1.000
    H12      H        0.35630    0.15110    0.86840    1.000
    H13      H        0.94690    0.98070    0.79380    1.000
    H14      H        0.06080    0.36160    0.82640    1.000
    H15      H        0.98740    0.79670    0.85160    1.000
    H16      H        0.13040    0.63470    0.86160    1.000
    H17      H        0.41780    0.96200    0.82820    1.000
    H18      H        0.78400    0.31390    0.85570    1.000
    H19      H        0.56220    0.29690    0.78280    1.000
    H20      H        0.78910    0.06990    0.69840    1.000
    H21      H        0.81030    0.07910    0.95130    1.000
    H22      H        0.98050    0.78170    0.00530    1.000
    H23      H        0.35630    0.65110    0.63160    1.000
    H24      H        0.94690    0.48070    0.70620    1.000
    H25      H        0.06080    0.86160    0.67360    1.000
    H26      H        0.98740    0.29670    0.64840    1.000
    H27      H        0.13040    0.13470    0.63840    1.000
    H28      H        0.41780    0.46200    0.67180    1.000
    H29      H        0.78400    0.81390    0.64430    1.000
    H30      H        0.56220    0.79690    0.71720    1.000
    H31      H        0.78910    0.56990    0.80160    1.000
    H32      H        0.81030    0.57910    0.54870    1.000
    H33      H        0.98050    0.28170    0.49470    1.000
    H34      H        0.64370    0.84890    0.13160    1.000
    H35      H        0.05310    0.01930    0.20620    1.000
    H36      H        0.93920    0.63840    0.17360    1.000
    H37      H        0.01260    0.20330    0.14840    1.000
    H38      H        0.86960    0.36530    0.13840    1.000
    H39      H        0.58220    0.03800    0.17180    1.000
    H40      H        0.21600    0.68610    0.14430    1.000
    H41      H        0.43780    0.70310    0.21720    1.000
    H42      H        0.21090    0.93010    0.30160    1.000
    H43      H        0.18970    0.92090    0.04870    1.000
    H44      H        0.01950    0.21830    0.99470    1.000
    C1       C        0.77170    0.22400    0.34880    1.000
    C2       C        0.73680    0.34260    0.35205    1.000
    C3       C        0.84200    0.45120    0.33076    1.000
    C4       C        0.98350    0.44560    0.30821    1.000
    C5       C        0.01800    0.32750    0.30780    1.000
    C6       C        0.91400    0.21710    0.32745    1.000
    C7       C        0.65880    0.10150    0.36671    1.000
    C8       C        0.90930    0.68950    0.34792    1.000
    C9       C        0.82960    0.77840    0.35320    1.000
    C10      C        0.67140    0.59950    0.33489    1.000
    C11      C        0.24240    0.23710    0.31564    1.000
    C12      C        0.36410    0.24730    0.27501    1.000
    C13      C        0.24150    0.37230    0.22815    1.000
    C14      C        0.12680    0.58520    0.47314    1.000
    C15      C        0.11320    0.45260    0.47081    1.000
    C16      C        0.01150    0.63040    0.50306    1.000
    C17      C        0.26110    0.67540    0.44129    1.000
    C18      C        0.22830    0.27600    0.84880    1.000
    C19      C        0.26320    0.15740    0.85205    1.000
    C20      C        0.15800    0.04880    0.83076    1.000
    C21      C        0.01650    0.05440    0.80821    1.000
    C22      C        0.98200    0.17250    0.80780    1.000
    C23      C        0.08600    0.28290    0.82745    1.000
    C24      C        0.34120    0.39850    0.86671    1.000
    C25      C        0.09070    0.81050    0.84792    1.000
    C26      C        0.17040    0.72160    0.85320    1.000
    C27      C        0.32860    0.90050    0.83489    1.000
    C28      C        0.75760    0.26290    0.81564    1.000
    C29      C        0.63590    0.25270    0.77501    1.000
    C30      C        0.75850    0.12770    0.72815    1.000
    C31      C        0.87320    0.91480    0.97314    1.000
    C32      C        0.88680    0.04740    0.97081    1.000
    C33      C        0.98850    0.86960    0.00306    1.000
    C34      C        0.73890    0.82460    0.94129    1.000
    C35      C        0.22830    0.77600    0.65120    1.000
    C36      C        0.26320    0.65740    0.64795    1.000
    C37      C        0.15800    0.54880    0.66924    1.000
    C38      C        0.01650    0.55440    0.69179    1.000
    C39      C        0.98200    0.67250    0.69220    1.000
    C40      C        0.08600    0.78290    0.67255    1.000
    C41      C        0.34120    0.89850    0.63329    1.000
    C42      C        0.09070    0.31050    0.65208    1.000
    C43      C        0.17040    0.22160    0.64680    1.000
    C44      C        0.32860    0.40050    0.66511    1.000
    C45      C        0.75760    0.76290    0.68436    1.000
    C46      C        0.63590    0.75270    0.72499    1.000
    C47      C        0.75850    0.62770    0.77185    1.000
    C48      C        0.87320    0.41480    0.52686    1.000
    C49      C        0.88680    0.54740    0.52919    1.000
    C50      C        0.98850    0.36960    0.49694    1.000
    C51      C        0.73890    0.32460    0.55871    1.000
    C52      C        0.77170    0.72400    0.15120    1.000
    C53      C        0.73680    0.84260    0.14795    1.000
    C54      C        0.84200    0.95120    0.16924    1.000
    C55      C        0.98350    0.94560    0.19179    1.000
    C56      C        0.01800    0.82750    0.19220    1.000
    C57      C        0.91400    0.71710    0.17255    1.000
    C58      C        0.65880    0.60150    0.13329    1.000
    C59      C        0.90930    0.18950    0.15208    1.000
    C60      C        0.82960    0.27840    0.14680    1.000
    C61      C        0.67140    0.09950    0.16511    1.000
    C62      C        0.24240    0.73710    0.18436    1.000
    C63      C        0.36410    0.74730    0.22499    1.000
    C64      C        0.24150    0.87230    0.27185    1.000
    C65      C        0.12680    0.08520    0.02686    1.000
    C66      C        0.11320    0.95260    0.02919    1.000
    C67      C        0.01150    0.13040    0.99694    1.000
    C68      C        0.26110    0.17540    0.05871    1.000
    N1       N        0.68100    0.72240    0.34449    1.000
    N2       N        0.80820    0.57420    0.33599    1.000
    N3       N        0.36490    0.33280    0.21984    1.000
    N4       N        0.16540    0.31710    0.28599    1.000
    N5       N        0.31900    0.77760    0.84449    1.000
    N6       N        0.19180    0.92580    0.83599    1.000
    N7       N        0.63510    0.16720    0.71984    1.000
    N8       N        0.83460    0.18290    0.78599    1.000
    N9       N        0.31900    0.27760    0.65551    1.000
    N10      N        0.19180    0.42580    0.66401    1.000
    N11      N        0.63510    0.66720    0.78016    1.000
    N12      N        0.83460    0.68290    0.71401    1.000
    N13      N        0.68100    0.22240    0.15551    1.000
    N14      N        0.80820    0.07420    0.16401    1.000
    N15      N        0.36490    0.83280    0.28016    1.000
    N16      N        0.16540    0.81710    0.21401    1.000
    O1       O        0.53190    0.10340    0.38806    1.000
    O2       O        0.69910    0.00090    0.35611    1.000
    O3       O        0.27070    0.79370    0.44206    1.000
    O4       O        0.35910    0.62900    0.41272    1.000
    O5       O        0.46810    0.39660    0.88806    1.000
    O6       O        0.30090    0.49910    0.85611    1.000
    O7       O        0.72930    0.70630    0.94206    1.000
    O8       O        0.64090    0.87100    0.91272    1.000
    O9       O        0.46810    0.89660    0.61194    1.000
    O10      O        0.30090    0.99910    0.64389    1.000
    O11      O        0.72930    0.20630    0.55794    1.000
    O12      O        0.64090    0.37100    0.58728    1.000
    O13      O        0.53190    0.60340    0.11194    1.000
    O14      O        0.69910    0.50090    0.14389    1.000
    O15      O        0.27070    0.29370    0.05794    1.000
    O16      O        0.35910    0.12900    0.08728    1.000
