# CIF file generated by openbabel 3.1.0, see https://openbabel.org
data_I
_chemical_name_common 'image0'
_cell_length_a 13.0769
_cell_length_b 26.5673
_cell_length_c 13.1579
_cell_angle_alpha 90
_cell_angle_beta 116.588
_cell_angle_gamma 90
_space_group_name_H-M_alt 'P 1'
_space_group_name_Hall 'P 1'
loop_
    _symmetry_equiv_pos_as_xyz
    x,y,z
loop_
    _atom_site_label
    _atom_site_type_symbol
    _atom_site_fract_x
    _atom_site_fract_y
    _atom_site_fract_z
    _atom_site_occupancy
    Dy1      Dy       0.18023    0.99455    0.08021    1.000
    O1       O        0.11650    0.93360    0.93490    1.000
    O2       O        0.30930    0.94770    0.21980    1.000
    O3       O        0.06670    0.04580    0.12650    1.000
    O4       O        0.10940    0.04750    0.92970    1.000
    O5       O        0.07490    0.93490    0.12630    1.000
    O6       O        0.30700    0.06100    0.16730    1.000
    C1       C        0.01240    0.92460    0.88300    1.000
    C2       C        0.37790    0.91950    0.29700    1.000
    C3       C        0.98010    0.87270    0.82880    1.000
    C4       C        0.39600    0.86730    0.26360    1.000
    O7       O        0.43150    0.93150    0.39760    1.000
    C5       C        0.87670    0.85140    0.81660    1.000
    C6       C        0.05410    0.84550    0.80130    1.000
    C7       C        0.47850    0.83610    0.34390    1.000
    C8       C        0.33160    0.84940    0.15290    1.000
    Dy2      Dy       0.54625    0.99302    0.49623    1.000
    H1       H        0.82710    0.87010    0.83480    1.000
    C9       C        0.84940    0.80310    0.77760    1.000
    H2       H        0.12260    0.85980    0.81030    1.000
    C10      C        0.02620    0.79710    0.76040    1.000
    H3       H        0.52240    0.84780    0.41740    1.000
    C11      C        0.49510    0.78830    0.31490    1.000
    H4       H        0.27760    0.87040    0.09890    1.000
    C12      C        0.34620    0.80190    0.12250    1.000
    O8       O        0.68600    0.92650    0.49900    1.000
    O9       O        0.61000    0.96790    0.34900    1.000
    O10      O        0.42660    0.04450    0.34720    1.000
    H5       H        0.78100    0.78890    0.76890    1.000
    C13      C        0.92440    0.77540    0.75110    1.000
    C14      C        0.09020    0.76060    0.71930    1.000
    C15      C        0.42920    0.77080    0.20410    1.000
    C16      C        0.58160    0.74850    0.38800    1.000
    H6       H        0.30200    0.79020    0.04900    1.000
    N1       N        0.68900    0.93680    0.40600    1.000
    C17      C        0.92140    0.72270    0.71660    1.000
    C18      C        0.09050    0.78010    0.61000    1.000
    C19      C        0.21220    0.75130    0.81010    1.000
    C20      C        0.01810    0.71320    0.69670    1.000
    C21      C        0.46250    0.71920    0.19710    1.000
    C22      C        0.70420    0.76680    0.42980    1.000
    C23      C        0.55950    0.73300    0.48820    1.000
    C24      C        0.55330    0.70550    0.30230    1.000
    O11      O        0.73700    0.91040    0.37100    1.000
    C25      C        0.84480    0.68390    0.70090    1.000
    H7       H        0.12110    0.75500    0.57940    1.000
    H8       H        0.01150    0.78700    0.55740    1.000
    H9       H        0.13580    0.80990    0.62350    1.000
    H10      H        0.24640    0.72530    0.78540    1.000
    H11      H        0.25640    0.78140    0.82150    1.000
    H12      H        0.21210    0.74170    0.87960    1.000
    C26      C        0.03720    0.66610    0.66510    1.000
    C27      C        0.42220    0.68470    0.10640    1.000
    H13      H        0.71570    0.77800    0.36700    1.000
    H14      H        0.71890    0.79370    0.48190    1.000
    H15      H        0.75660    0.73980    0.46680    1.000
    H16      H        0.60660    0.70470    0.52510    1.000
    H17      H        0.57950    0.76030    0.54020    1.000
    H18      H        0.47920    0.72480    0.46210    1.000
    C28      C        0.60210    0.65840    0.31720    1.000
    H19      H        0.78220    0.68950    0.71520    1.000
    C29      C        0.86050    0.63750    0.66440    1.000
    H20      H        0.10200    0.65980    0.65510    1.000
    C30      C        0.95820    0.62840    0.64860    1.000
    H21      H        0.36450    0.69390    0.03580    1.000
    C31      C        0.46790    0.63810    0.12280    1.000
    H22      H        0.66190    0.64950    0.38670    1.000
    C32      C        0.56140    0.62440    0.22750    1.000
    H23      H        0.80670    0.61220    0.65030    1.000
    C33      C        0.97680    0.57620    0.61450    1.000
    H24      H        0.43770    0.61460    0.06440    1.000
    C34      C        0.61520    0.57340    0.24200    1.000
    Dy3      Dy       0.81977    0.49455    0.41979    1.000
    O12      O        0.88350    0.43360    0.56510    1.000
    O13      O        0.69070    0.44770    0.28020    1.000
    O14      O        0.93330    0.54580    0.37350    1.000
    O15      O        0.89060    0.54750    0.57030    1.000
    O16      O        0.92510    0.43490    0.37370    1.000
    O17      O        0.69300    0.56100    0.33270    1.000
    C35      C        0.98760    0.42460    0.61700    1.000
    C36      C        0.62210    0.41950    0.20300    1.000
    C37      C        0.01990    0.37270    0.67120    1.000
    C38      C        0.60400    0.36730    0.23640    1.000
    O18      O        0.56850    0.43150    0.10240    1.000
    C39      C        0.12330    0.35140    0.68340    1.000
    C40      C        0.94590    0.34550    0.69870    1.000
    C41      C        0.52150    0.33610    0.15610    1.000
    C42      C        0.66840    0.34940    0.34710    1.000
    Dy4      Dy       0.45375    0.49302    0.00377    1.000
    H25      H        0.17290    0.37010    0.66520    1.000
    C43      C        0.15060    0.30310    0.72240    1.000
    H26      H        0.87740    0.35980    0.68970    1.000
    C44      C        0.97380    0.29710    0.73960    1.000
    H27      H        0.47760    0.34780    0.08260    1.000
    C45      C        0.50490    0.28830    0.18510    1.000
    H28      H        0.72240    0.37040    0.40110    1.000
    C46      C        0.65380    0.30190    0.37750    1.000
    O19      O        0.31400    0.42650    0.00100    1.000
    O20      O        0.39000    0.46790    0.15100    1.000
    O21      O        0.57340    0.54450    0.15280    1.000
    H29      H        0.21900    0.28890    0.73110    1.000
    C47      C        0.07560    0.27540    0.74890    1.000
    C48      C        0.90980    0.26060    0.78070    1.000
    C49      C        0.57080    0.27080    0.29590    1.000
    C50      C        0.41840    0.24850    0.11200    1.000
    H30      H        0.69800    0.29020    0.45100    1.000
    N2       N        0.31100    0.43680    0.09400    1.000
    C51      C        0.07860    0.22270    0.78340    1.000
    C52      C        0.90950    0.28010    0.89000    1.000
    C53      C        0.78780    0.25130    0.68990    1.000
    C54      C        0.98190    0.21320    0.80330    1.000
    C55      C        0.53750    0.21920    0.30290    1.000
    C56      C        0.29580    0.26680    0.07020    1.000
    C57      C        0.44050    0.23300    0.01180    1.000
    C58      C        0.44670    0.20550    0.19770    1.000
    O22      O        0.26300    0.41040    0.12900    1.000
    C59      C        0.15520    0.18390    0.79910    1.000
    H31      H        0.87890    0.25500    0.92060    1.000
    H32      H        0.98850    0.28700    0.94260    1.000
    H33      H        0.86420    0.30990    0.87650    1.000
    H34      H        0.75360    0.22530    0.71460    1.000
    H35      H        0.74360    0.28140    0.67850    1.000
    H36      H        0.78790    0.24170    0.62040    1.000
    C60      C        0.96280    0.16610    0.83490    1.000
    C61      C        0.57780    0.18470    0.39360    1.000
    H37      H        0.28430    0.27800    0.13300    1.000
    H38      H        0.28110    0.29370    0.01810    1.000
    H39      H        0.24340    0.23980    0.03320    1.000
    H40      H        0.39340    0.20470    0.97490    1.000
    H41      H        0.42050    0.26030    0.95980    1.000
    H42      H        0.52080    0.22480    0.03790    1.000
    C62      C        0.39790    0.15840    0.18280    1.000
    H43      H        0.21780    0.18950    0.78480    1.000
    C63      C        0.13950    0.13750    0.83560    1.000
    H44      H        0.89800    0.15980    0.84490    1.000
    C64      C        0.04180    0.12840    0.85140    1.000
    H45      H        0.63550    0.19390    0.46420    1.000
    C65      C        0.53210    0.13810    0.37720    1.000
    H46      H        0.33810    0.14950    0.11330    1.000
    C66      C        0.43860    0.12440    0.27250    1.000
    H47      H        0.19330    0.11220    0.84970    1.000
    C67      C        0.02320    0.07620    0.88550    1.000
    H48      H        0.56230    0.11460    0.43560    1.000
    C68      C        0.38480    0.07340    0.25800    1.000
    Dy5      Dy       0.81977    0.00545    0.91979    1.000
    O23      O        0.88350    0.06640    0.06510    1.000
    O24      O        0.69070    0.05230    0.78020    1.000
    O25      O        0.93330    0.95420    0.87350    1.000
    O26      O        0.89060    0.95250    0.07030    1.000
    O27      O        0.92510    0.06510    0.87370    1.000
    O28      O        0.69300    0.93900    0.83270    1.000
    C69      C        0.98760    0.07540    0.11700    1.000
    C70      C        0.62210    0.08050    0.70300    1.000
    C71      C        0.01990    0.12730    0.17120    1.000
    C72      C        0.60400    0.13270    0.73640    1.000
    O29      O        0.56850    0.06850    0.60240    1.000
    C73      C        0.12330    0.14860    0.18340    1.000
    C74      C        0.94590    0.15450    0.19870    1.000
    C75      C        0.52150    0.16390    0.65610    1.000
    C76      C        0.66840    0.15060    0.84710    1.000
    Dy6      Dy       0.45375    0.00698    0.50377    1.000
    H49      H        0.17290    0.12990    0.16520    1.000
    C77      C        0.15060    0.19690    0.22240    1.000
    H50      H        0.87740    0.14020    0.18970    1.000
    C78      C        0.97380    0.20290    0.23960    1.000
    H51      H        0.47760    0.15220    0.58260    1.000
    C79      C        0.50490    0.21170    0.68510    1.000
    H52      H        0.72240    0.12960    0.90110    1.000
    C80      C        0.65380    0.19810    0.87750    1.000
    O30      O        0.31400    0.07350    0.50100    1.000
    O31      O        0.39000    0.03210    0.65100    1.000
    O32      O        0.57340    0.95550    0.65280    1.000
    H53      H        0.21900    0.21110    0.23110    1.000
    C81      C        0.07560    0.22460    0.24890    1.000
    C82      C        0.90980    0.23940    0.28070    1.000
    C83      C        0.57080    0.22920    0.79590    1.000
    C84      C        0.41840    0.25150    0.61200    1.000
    H54      H        0.69800    0.20980    0.95100    1.000
    N3       N        0.31100    0.06320    0.59400    1.000
    C85      C        0.07860    0.27730    0.28340    1.000
    C86      C        0.90950    0.21990    0.39000    1.000
    C87      C        0.78780    0.24870    0.18990    1.000
    C88      C        0.98190    0.28680    0.30330    1.000
    C89      C        0.53750    0.28080    0.80290    1.000
    C90      C        0.29580    0.23320    0.57020    1.000
    C91      C        0.44050    0.26700    0.51180    1.000
    C92      C        0.44670    0.29450    0.69770    1.000
    O33      O        0.26300    0.08960    0.62900    1.000
    C93      C        0.15520    0.31610    0.29910    1.000
    H55      H        0.87890    0.24500    0.42060    1.000
    H56      H        0.98850    0.21300    0.44260    1.000
    H57      H        0.86420    0.19010    0.37650    1.000
    H58      H        0.75360    0.27470    0.21460    1.000
    H59      H        0.74360    0.21860    0.17850    1.000
    H60      H        0.78790    0.25830    0.12040    1.000
    C94      C        0.96280    0.33390    0.33490    1.000
    C95      C        0.57780    0.31530    0.89360    1.000
    H61      H        0.28430    0.22200    0.63300    1.000
    H62      H        0.28110    0.20630    0.51810    1.000
    H63      H        0.24340    0.26020    0.53320    1.000
    H64      H        0.39340    0.29530    0.47490    1.000
    H65      H        0.42050    0.23970    0.45980    1.000
    H66      H        0.52080    0.27520    0.53790    1.000
    C96      C        0.39790    0.34160    0.68280    1.000
    H67      H        0.21780    0.31050    0.28480    1.000
    C97      C        0.13950    0.36250    0.33560    1.000
    H68      H        0.89800    0.34020    0.34490    1.000
    C98      C        0.04180    0.37160    0.35140    1.000
    H69      H        0.63550    0.30610    0.96420    1.000
    C99      C        0.53210    0.36190    0.87720    1.000
    H70      H        0.33810    0.35050    0.61330    1.000
    C100     C        0.43860    0.37560    0.77250    1.000
    H71      H        0.19330    0.38780    0.34970    1.000
    C101     C        0.02320    0.42380    0.38550    1.000
    H72      H        0.56230    0.38540    0.93560    1.000
    C102     C        0.38480    0.42660    0.75800    1.000
    Dy7      Dy       0.18023    0.50545    0.58021    1.000
    O34      O        0.11650    0.56640    0.43490    1.000
    O35      O        0.30930    0.55230    0.71980    1.000
    O36      O        0.06670    0.45420    0.62650    1.000
    O37      O        0.10940    0.45250    0.42970    1.000
    O38      O        0.07490    0.56510    0.62630    1.000
    O39      O        0.30700    0.43900    0.66730    1.000
    C103     C        0.01240    0.57540    0.38300    1.000
    C104     C        0.37790    0.58050    0.79700    1.000
    C105     C        0.98010    0.62730    0.32880    1.000
    C106     C        0.39600    0.63270    0.76360    1.000
    O40      O        0.43150    0.56850    0.89760    1.000
    C107     C        0.87670    0.64860    0.31660    1.000
    C108     C        0.05410    0.65450    0.30130    1.000
    C109     C        0.47850    0.66390    0.84390    1.000
    C110     C        0.33160    0.65060    0.65290    1.000
    Dy8      Dy       0.54625    0.50698    0.99623    1.000
    H73      H        0.82710    0.62990    0.33480    1.000
    C111     C        0.84940    0.69690    0.27760    1.000
    H74      H        0.12260    0.64020    0.31030    1.000
    C112     C        0.02620    0.70290    0.26040    1.000
    H75      H        0.52240    0.65220    0.91740    1.000
    C113     C        0.49510    0.71170    0.81490    1.000
    H76      H        0.27760    0.62960    0.59890    1.000
    C114     C        0.34620    0.69810    0.62250    1.000
    O41      O        0.68600    0.57350    0.99900    1.000
    O42      O        0.61000    0.53210    0.84900    1.000
    O43      O        0.42660    0.45550    0.84720    1.000
    H77      H        0.78100    0.71110    0.26890    1.000
    C115     C        0.92440    0.72460    0.25110    1.000
    C116     C        0.09020    0.73940    0.21930    1.000
    C117     C        0.42920    0.72920    0.70410    1.000
    C118     C        0.58160    0.75150    0.88800    1.000
    H78      H        0.30200    0.70980    0.54900    1.000
    N4       N        0.68900    0.56320    0.90600    1.000
    C119     C        0.92140    0.77730    0.21660    1.000
    C120     C        0.09050    0.71990    0.11000    1.000
    C121     C        0.21220    0.74870    0.31010    1.000
    C122     C        0.01810    0.78680    0.19670    1.000
    C123     C        0.46250    0.78080    0.69710    1.000
    C124     C        0.70420    0.73320    0.92980    1.000
    C125     C        0.55950    0.76700    0.98820    1.000
    C126     C        0.55330    0.79450    0.80230    1.000
    O44      O        0.73700    0.58960    0.87100    1.000
    C127     C        0.84480    0.81610    0.20090    1.000
    H79      H        0.12110    0.74500    0.07940    1.000
    H80      H        0.01150    0.71300    0.05740    1.000
    H81      H        0.13580    0.69010    0.12350    1.000
    H82      H        0.24640    0.77470    0.28540    1.000
    H83      H        0.25640    0.71860    0.32150    1.000
    H84      H        0.21210    0.75830    0.37960    1.000
    C128     C        0.03720    0.83390    0.16510    1.000
    C129     C        0.42220    0.81530    0.60640    1.000
    H85      H        0.71570    0.72200    0.86700    1.000
    H86      H        0.71890    0.70630    0.98190    1.000
    H87      H        0.75660    0.76020    0.96680    1.000
    H88      H        0.60660    0.79530    0.02510    1.000
    H89      H        0.57950    0.73970    0.04020    1.000
    H90      H        0.47920    0.77520    0.96210    1.000
    C130     C        0.60210    0.84160    0.81720    1.000
    H91      H        0.78220    0.81050    0.21520    1.000
    C131     C        0.86050    0.86250    0.16440    1.000
    H92      H        0.10200    0.84020    0.15510    1.000
    C132     C        0.95820    0.87160    0.14860    1.000
    H93      H        0.36450    0.80610    0.53580    1.000
    C133     C        0.46790    0.86190    0.62280    1.000
    H94      H        0.66190    0.85050    0.88670    1.000
    C134     C        0.56140    0.87560    0.72750    1.000
    H95      H        0.80670    0.88780    0.15030    1.000
    C135     C        0.97680    0.92380    0.11450    1.000
    H96      H        0.43770    0.88540    0.56440    1.000
    C136     C        0.61520    0.92660    0.74200    1.000
