# CIF file generated by openbabel 3.1.0, see https://openbabel.org
data_I
_chemical_name_common 'image0'
_cell_length_a 11.491
_cell_length_b 12.094
_cell_length_c 12.62
_cell_angle_alpha 69.61
_cell_angle_beta 64.15
_cell_angle_gamma 72.46
_space_group_name_H-M_alt 'P 1'
_space_group_name_Hall 'P 1'
loop_
    _symmetry_equiv_pos_as_xyz
    x,y,z
loop_
    _atom_site_label
    _atom_site_type_symbol
    _atom_site_fract_x
    _atom_site_fract_y
    _atom_site_fract_z
    _atom_site_occupancy
    S1       S        0.84579    0.75810    0.10334    1.000
    O1       O        0.92680    0.83620    0.09960    1.000
    O2       O        0.92570    0.67130    0.03850    1.000
    O3       O        0.79830    0.68070    0.23530    1.000
    O4       O        0.72880    0.81900    0.08180    1.000
    N1       N        0.81440    0.09910    0.09120    1.000
    N2       N        0.18750    0.40770    0.40840    1.000
    C1       C        0.80200    0.17110    0.15850    1.000
    H1       H        0.88050    0.18070    0.16110    1.000
    C2       C        0.68260    0.23160    0.22280    1.000
    H2       H        0.67930    0.28080    0.26990    1.000
    C3       C        0.56560    0.22110    0.21900    1.000
    C4       C        0.57990    0.14640    0.14810    1.000
    H3       H        0.50380    0.13570    0.14180    1.000
    C5       C        0.70270    0.08950    0.08820    1.000
    H4       H        0.70930    0.03900    0.04080    1.000
    C6       C        0.43510    0.28460    0.28550    1.000
    C7       C        0.41900    0.35070    0.36430    1.000
    H5       H        0.49360    0.35530    0.37720    1.000
    C8       C        0.29580    0.40890    0.42290    1.000
    H6       H        0.71330    0.54740    0.52260    1.000
    C9       C        0.79840    0.65570    0.66720    1.000
    H7       H        0.87510    0.65810    0.67820    1.000
    C10      C        0.67870    0.71710    0.72860    1.000
    H8       H        0.67320    0.76160    0.78110    1.000
    N3       N        0.19070    0.50560    0.99200    1.000
    C11      C        0.30270    0.44660    0.92610    1.000
    H9       H        0.29880    0.40650    0.87440    1.000
    C12      C        0.42400    0.44110    0.92790    1.000
    H10      H        0.50150    0.39520    0.88110    1.000
    C13      C        0.43490    0.50170    0.99820    1.000
    C14      C        0.31940    0.56720    0.06300    1.000
    H11      H        0.32180    0.61210    0.11130    1.000
    C15      C        0.20090    0.56760    0.05750    1.000
    H12      H        0.12230    0.61390    0.10250    1.000
    S2       S        0.15421    0.24190    0.89666    1.000
    O5       O        0.07320    0.16380    0.90040    1.000
    O6       O        0.07430    0.32870    0.96150    1.000
    O7       O        0.20170    0.31930    0.76470    1.000
    O8       O        0.27120    0.18100    0.91820    1.000
    N4       N        0.18560    0.90090    0.90880    1.000
    N5       N        0.81250    0.59230    0.59160    1.000
    C16      C        0.19800    0.82890    0.84150    1.000
    H13      H        0.11950    0.81930    0.83890    1.000
    C17      C        0.31740    0.76840    0.77720    1.000
    H14      H        0.32070    0.71920    0.73010    1.000
    C18      C        0.43440    0.77890    0.78100    1.000
    C19      C        0.42010    0.85360    0.85190    1.000
    H15      H        0.49620    0.86430    0.85820    1.000
    C20      C        0.29730    0.91050    0.91180    1.000
    H16      H        0.29070    0.96100    0.95920    1.000
    C21      C        0.56490    0.71540    0.71450    1.000
    C22      C        0.58100    0.64930    0.63570    1.000
    H17      H        0.50640    0.64470    0.62280    1.000
    C23      C        0.70420    0.59110    0.57710    1.000
    H18      H        0.28670    0.45260    0.47740    1.000
    C24      C        0.20160    0.34430    0.33280    1.000
    H19      H        0.12490    0.34190    0.32180    1.000
    C25      C        0.32130    0.28290    0.27140    1.000
    H20      H        0.32680    0.23840    0.21890    1.000
    N6       N        0.80930    0.49440    0.00800    1.000
    C26      C        0.69730    0.55340    0.07390    1.000
    H21      H        0.70120    0.59350    0.12560    1.000
    C27      C        0.57600    0.55890    0.07210    1.000
    H22      H        0.49850    0.60480    0.11890    1.000
    C28      C        0.56510    0.49830    0.00180    1.000
    C29      C        0.68060    0.43280    0.93700    1.000
    H23      H        0.67820    0.38790    0.88870    1.000
    C30      C        0.79910    0.43240    0.94250    1.000
    H24      H        0.87770    0.38610    0.89750    1.000
    Zn1      Zn       0.00000    0.00000    0.00000    1.000
    Zn2      Zn       0.00000    0.50000    0.50000    1.000
    Zn3      Zn       0.00000    0.50000    0.00000    1.000
