# CIF file generated by openbabel 3.1.0, see https://openbabel.org
data_I
_chemical_name_common 'DITYAH_clean'
_cell_length_a 10.2969
_cell_length_b 15.7512
_cell_length_c 18.7712
_cell_angle_alpha 90
_cell_angle_beta 90
_cell_angle_gamma 90
_space_group_name_H-M_alt 'P 1'
_space_group_name_Hall 'P 1'
loop_
    _symmetry_equiv_pos_as_xyz
    x,y,z
loop_
    _atom_site_label
    _atom_site_type_symbol
    _atom_site_fract_x
    _atom_site_fract_y
    _atom_site_fract_z
    _atom_site_occupancy
    Co1      Co       0.73967    0.85981    0.99710    1.000
    Co2      Co       0.26033    0.14019    0.49710    1.000
    Co3      Co       0.76033    0.35981    0.99710    1.000
    Co4      Co       0.23967    0.64019    0.49710    1.000
    H1       H        0.68180    0.81890    0.15410    1.000
    H2       H        0.73900    0.73070    0.24750    1.000
    H3       H        0.97730    0.60510    0.11250    1.000
    H4       H        0.91210    0.69580    0.02260    1.000
    H5       H        0.96610    0.63970    0.28510    1.000
    H6       H        0.97660    0.56060    0.23220    1.000
    H7       H        0.84670    0.53670    0.33990    1.000
    H8       H        0.73890    0.59750    0.30550    1.000
    H9       H        0.82510    0.44070    0.24360    1.000
    H10      H        0.72230    0.50230    0.20620    1.000
    H11      H        0.57060    0.47610    0.29880    1.000
    H12      H        0.61090    0.38920    0.26070    1.000
    H13      H        0.76760    0.36860    0.35790    1.000
    H14      H        0.69780    0.44610    0.39760    1.000
    H15      H        0.43480    0.42240    0.40400    1.000
    H16      H        0.28660    0.32680    0.44860    1.000
    H17      H        0.54160    0.14160    0.43900    1.000
    H18      H        0.69710    0.23140    0.39340    1.000
    H19      H        0.77990    0.89750    0.83930    1.000
    H20      H        0.75110    0.99900    0.75230    1.000
    H21      H        0.53070    0.13270    0.89090    1.000
    H22      H        0.57270    0.02950    0.97560    1.000
    H23      H        0.54650    0.18030    0.76460    1.000
    H24      H        0.62560    0.12330    0.70870    1.000
    H25      H        0.73350    0.24650    0.80480    1.000
    H26      H        0.82510    0.17720    0.76810    1.000
    H27      H        0.77200    0.23090    0.65490    1.000
    H28      H        0.83830    0.30200    0.70330    1.000
    H29      H        0.63040    0.36400    0.72380    1.000
    H30      H        0.56600    0.29370    0.67330    1.000
    H31      H        0.75610    0.41450    0.62600    1.000
    H32      H        0.69210    0.34430    0.57570    1.000
    H33      H        0.68270    0.55140    0.59230    1.000
    H34      H        0.52290    0.64130    0.55300    1.000
    H35      H        0.26630    0.45680    0.55340    1.000
    H36      H        0.41840    0.36150    0.59390    1.000
    H37      H        0.31820    0.18110    0.65410    1.000
    H38      H        0.26100    0.26930    0.74750    1.000
    H39      H        0.02270    0.39490    0.61250    1.000
    H40      H        0.08790    0.30420    0.52260    1.000
    H41      H        0.03390    0.36030    0.78510    1.000
    H42      H        0.02340    0.43940    0.73220    1.000
    H43      H        0.15330    0.46330    0.83990    1.000
    H44      H        0.26110    0.40250    0.80550    1.000
    H45      H        0.17490    0.55930    0.74360    1.000
    H46      H        0.27770    0.49770    0.70620    1.000
    H47      H        0.42940    0.52390    0.79880    1.000
    H48      H        0.38910    0.61080    0.76070    1.000
    H49      H        0.23240    0.63140    0.85790    1.000
    H50      H        0.30220    0.55390    0.89760    1.000
    H51      H        0.56520    0.57760    0.90400    1.000
    H52      H        0.71340    0.67320    0.94860    1.000
    H53      H        0.45840    0.85840    0.93900    1.000
    H54      H        0.30290    0.76860    0.89340    1.000
    H55      H        0.22010    0.10250    0.33930    1.000
    H56      H        0.24890    0.00100    0.25230    1.000
    H57      H        0.46930    0.86730    0.39090    1.000
    H58      H        0.42730    0.97050    0.47560    1.000
    H59      H        0.45350    0.81970    0.26460    1.000
    H60      H        0.37440    0.87670    0.20870    1.000
    H61      H        0.26650    0.75350    0.30480    1.000
    H62      H        0.17490    0.82280    0.26810    1.000
    H63      H        0.22800    0.76910    0.15490    1.000
    H64      H        0.16170    0.69800    0.20330    1.000
    H65      H        0.36960    0.63600    0.22380    1.000
    H66      H        0.43400    0.70630    0.17330    1.000
    H67      H        0.24390    0.58550    0.12600    1.000
    H68      H        0.30790    0.65570    0.07570    1.000
    H69      H        0.31730    0.44860    0.09230    1.000
    H70      H        0.47710    0.35870    0.05300    1.000
    H71      H        0.73370    0.54320    0.05340    1.000
    H72      H        0.58160    0.63850    0.09390    1.000
    H73      H        0.81820    0.31890    0.15410    1.000
    H74      H        0.76100    0.23070    0.24750    1.000
    H75      H        0.52270    0.10510    0.11250    1.000
    H76      H        0.58790    0.19580    0.02260    1.000
    H77      H        0.53390    0.13970    0.28510    1.000
    H78      H        0.52340    0.06060    0.23220    1.000
    H79      H        0.65330    0.03670    0.33990    1.000
    H80      H        0.76110    0.09750    0.30550    1.000
    H81      H        0.67490    0.94070    0.24360    1.000
    H82      H        0.77770    0.00230    0.20620    1.000
    H83      H        0.92940    0.97610    0.29880    1.000
    H84      H        0.88910    0.88920    0.26070    1.000
    H85      H        0.73240    0.86860    0.35790    1.000
    H86      H        0.80220    0.94610    0.39760    1.000
    H87      H        0.06520    0.92240    0.40400    1.000
    H88      H        0.21340    0.82680    0.44860    1.000
    H89      H        0.95840    0.64160    0.43900    1.000
    H90      H        0.80290    0.73140    0.39340    1.000
    H91      H        0.72010    0.39750    0.83930    1.000
    H92      H        0.74890    0.49900    0.75230    1.000
    H93      H        0.96930    0.63270    0.89090    1.000
    H94      H        0.92730    0.52950    0.97560    1.000
    H95      H        0.95350    0.68030    0.76460    1.000
    H96      H        0.87440    0.62330    0.70870    1.000
    H97      H        0.76650    0.74650    0.80480    1.000
    H98      H        0.67490    0.67720    0.76810    1.000
    H99      H        0.72800    0.73090    0.65490    1.000
    H100     H        0.66170    0.80200    0.70330    1.000
    H101     H        0.86960    0.86400    0.72380    1.000
    H102     H        0.93400    0.79370    0.67330    1.000
    H103     H        0.74390    0.91450    0.62600    1.000
    H104     H        0.80790    0.84430    0.57570    1.000
    H105     H        0.81730    0.05140    0.59230    1.000
    H106     H        0.97710    0.14130    0.55300    1.000
    H107     H        0.23370    0.95680    0.55340    1.000
    H108     H        0.08160    0.86150    0.59390    1.000
    H109     H        0.18180    0.68110    0.65410    1.000
    H110     H        0.23900    0.76930    0.74750    1.000
    H111     H        0.47730    0.89490    0.61250    1.000
    H112     H        0.41210    0.80420    0.52260    1.000
    H113     H        0.46610    0.86030    0.78510    1.000
    H114     H        0.47660    0.93940    0.73220    1.000
    H115     H        0.34670    0.96330    0.83990    1.000
    H116     H        0.23890    0.90250    0.80550    1.000
    H117     H        0.32510    0.05930    0.74360    1.000
    H118     H        0.22230    0.99770    0.70620    1.000
    H119     H        0.07060    0.02390    0.79880    1.000
    H120     H        0.11090    0.11080    0.76070    1.000
    H121     H        0.26760    0.13140    0.85790    1.000
    H122     H        0.19780    0.05390    0.89760    1.000
    H123     H        0.93480    0.07760    0.90400    1.000
    H124     H        0.78660    0.17320    0.94860    1.000
    H125     H        0.04160    0.35840    0.93900    1.000
    H126     H        0.19710    0.26860    0.89340    1.000
    H127     H        0.27990    0.60250    0.33930    1.000
    H128     H        0.25110    0.50100    0.25230    1.000
    H129     H        0.03070    0.36730    0.39090    1.000
    H130     H        0.07270    0.47050    0.47560    1.000
    H131     H        0.04650    0.31970    0.26460    1.000
    H132     H        0.12560    0.37670    0.20870    1.000
    H133     H        0.23350    0.25350    0.30480    1.000
    H134     H        0.32510    0.32280    0.26810    1.000
    H135     H        0.27200    0.26910    0.15490    1.000
    H136     H        0.33830    0.19800    0.20330    1.000
    H137     H        0.13040    0.13600    0.22380    1.000
    H138     H        0.06600    0.20630    0.17330    1.000
    H139     H        0.25610    0.08550    0.12600    1.000
    H140     H        0.19210    0.15570    0.07570    1.000
    H141     H        0.18270    0.94860    0.09230    1.000
    H142     H        0.02290    0.85870    0.05300    1.000
    H143     H        0.76630    0.04320    0.05340    1.000
    H144     H        0.91840    0.13850    0.09390    1.000
    C1       C        0.74269    0.77480    0.14550    1.000
    C2       C        0.77714    0.72266    0.20186    1.000
    C3       C        0.86813    0.65821    0.19131    1.000
    C4       C        0.91665    0.64892    0.12265    1.000
    C5       C        0.87683    0.70336    0.06897    1.000
    C6       C        0.91609    0.60352    0.25183    1.000
    C7       C        0.80981    0.55717    0.29435    1.000
    C8       C        0.75436    0.48180    0.25284    1.000
    C9       C        0.64311    0.43576    0.29141    1.000
    C10      C        0.68399    0.39894    0.36353    1.000
    C11      C        0.58468    0.33871    0.39367    1.000
    C12      C        0.45953    0.36482    0.41070    1.000
    C13      C        0.37136    0.30719    0.43735    1.000
    C14      C        0.51951    0.19951    0.43166    1.000
    C15      C        0.61336    0.25280    0.40458    1.000
    C16      C        0.73130    0.94699    0.85054    1.000
    C17      C        0.71350    0.00705    0.79803    1.000
    C18      C        0.64068    0.07944    0.81195    1.000
    C19      C        0.58504    0.08593    0.87940    1.000
    C20      C        0.60985    0.02341    0.92959    1.000
    C21      C        0.62840    0.14879    0.75692    1.000
    C22      C        0.74435    0.21050    0.76195    1.000
    C23      C        0.75881    0.26741    0.69718    1.000
    C24      C        0.64579    0.32719    0.68194    1.000
    C25      C        0.67530    0.38221    0.61672    1.000
    C26      C        0.57066    0.44394    0.59617    1.000
    C27      C        0.59772    0.53001    0.58404    1.000
    C28      C        0.50179    0.58326    0.56031    1.000
    C29      C        0.35272    0.47614    0.56069    1.000
    C30      C        0.44324    0.41858    0.58490    1.000
    C31      C        0.25731    0.22520    0.64550    1.000
    C32      C        0.22286    0.27734    0.70186    1.000
    C33      C        0.13187    0.34179    0.69131    1.000
    C34      C        0.08335    0.35108    0.62265    1.000
    C35      C        0.12317    0.29664    0.56897    1.000
    C36      C        0.08391    0.39648    0.75183    1.000
    C37      C        0.19019    0.44283    0.79435    1.000
    C38      C        0.24564    0.51820    0.75284    1.000
    C39      C        0.35689    0.56424    0.79141    1.000
    C40      C        0.31601    0.60106    0.86353    1.000
    C41      C        0.41532    0.66129    0.89367    1.000
    C42      C        0.54047    0.63518    0.91070    1.000
    C43      C        0.62864    0.69281    0.93735    1.000
    C44      C        0.48049    0.80049    0.93166    1.000
    C45      C        0.38664    0.74720    0.90458    1.000
    C46      C        0.26870    0.05301    0.35054    1.000
    C47      C        0.28650    0.99295    0.29803    1.000
    C48      C        0.35932    0.92056    0.31195    1.000
    C49      C        0.41496    0.91407    0.37940    1.000
    C50      C        0.39015    0.97659    0.42959    1.000
    C51      C        0.37160    0.85121    0.25692    1.000
    C52      C        0.25565    0.78950    0.26195    1.000
    C53      C        0.24119    0.73259    0.19718    1.000
    C54      C        0.35421    0.67281    0.18194    1.000
    C55      C        0.32470    0.61779    0.11672    1.000
    C56      C        0.42934    0.55606    0.09617    1.000
    C57      C        0.40228    0.46999    0.08404    1.000
    C58      C        0.49821    0.41674    0.06031    1.000
    C59      C        0.64728    0.52386    0.06069    1.000
    C60      C        0.55676    0.58142    0.08490    1.000
    C61      C        0.75731    0.27480    0.14550    1.000
    C62      C        0.72286    0.22266    0.20186    1.000
    C63      C        0.63187    0.15821    0.19131    1.000
    C64      C        0.58335    0.14892    0.12265    1.000
    C65      C        0.62317    0.20336    0.06897    1.000
    C66      C        0.58391    0.10352    0.25183    1.000
    C67      C        0.69019    0.05717    0.29435    1.000
    C68      C        0.74564    0.98180    0.25284    1.000
    C69      C        0.85689    0.93576    0.29141    1.000
    C70      C        0.81601    0.89894    0.36353    1.000
    C71      C        0.91532    0.83871    0.39367    1.000
    C72      C        0.04047    0.86482    0.41070    1.000
    C73      C        0.12864    0.80719    0.43735    1.000
    C74      C        0.98049    0.69951    0.43166    1.000
    C75      C        0.88664    0.75280    0.40458    1.000
    C76      C        0.76870    0.44699    0.85054    1.000
    C77      C        0.78650    0.50705    0.79803    1.000
    C78      C        0.85932    0.57944    0.81195    1.000
    C79      C        0.91496    0.58593    0.87940    1.000
    C80      C        0.89015    0.52341    0.92959    1.000
    C81      C        0.87160    0.64879    0.75692    1.000
    C82      C        0.75565    0.71050    0.76195    1.000
    C83      C        0.74119    0.76741    0.69718    1.000
    C84      C        0.85421    0.82719    0.68194    1.000
    C85      C        0.82470    0.88221    0.61672    1.000
    C86      C        0.92934    0.94394    0.59617    1.000
    C87      C        0.90228    0.03001    0.58404    1.000
    C88      C        0.99821    0.08326    0.56031    1.000
    C89      C        0.14728    0.97614    0.56069    1.000
    C90      C        0.05676    0.91858    0.58490    1.000
    C91      C        0.24269    0.72520    0.64550    1.000
    C92      C        0.27714    0.77734    0.70186    1.000
    C93      C        0.36813    0.84179    0.69131    1.000
    C94      C        0.41665    0.85108    0.62265    1.000
    C95      C        0.37683    0.79664    0.56897    1.000
    C96      C        0.41609    0.89648    0.75183    1.000
    C97      C        0.30981    0.94283    0.79435    1.000
    C98      C        0.25436    0.01820    0.75284    1.000
    C99      C        0.14311    0.06424    0.79141    1.000
    C100     C        0.18399    0.10106    0.86353    1.000
    C101     C        0.08468    0.16129    0.89367    1.000
    C102     C        0.95953    0.13518    0.91070    1.000
    C103     C        0.87136    0.19281    0.93735    1.000
    C104     C        0.01951    0.30049    0.93166    1.000
    C105     C        0.11336    0.24720    0.90458    1.000
    C106     C        0.23130    0.55301    0.35054    1.000
    C107     C        0.21350    0.49295    0.29803    1.000
    C108     C        0.14068    0.42056    0.31195    1.000
    C109     C        0.08504    0.41407    0.37940    1.000
    C110     C        0.10985    0.47659    0.42959    1.000
    C111     C        0.12840    0.35121    0.25692    1.000
    C112     C        0.24435    0.28950    0.26195    1.000
    C113     C        0.25881    0.23259    0.19718    1.000
    C114     C        0.14579    0.17281    0.18194    1.000
    C115     C        0.17530    0.11779    0.11672    1.000
    C116     C        0.07066    0.05606    0.09617    1.000
    C117     C        0.09772    0.96999    0.08404    1.000
    C118     C        0.00179    0.91674    0.06031    1.000
    C119     C        0.85272    0.02386    0.06069    1.000
    C120     C        0.94324    0.08142    0.08490    1.000
    N1       N        0.79076    0.76640    0.07920    1.000
    N2       N        0.39872    0.22453    0.44836    1.000
    N3       N        0.68358    0.95470    0.91674    1.000
    N4       N        0.37914    0.55799    0.54669    1.000
    N5       N        0.20924    0.23360    0.57920    1.000
    N6       N        0.60128    0.77547    0.94836    1.000
    N7       N        0.31642    0.04530    0.41674    1.000
    N8       N        0.62086    0.44201    0.04669    1.000
    N9       N        0.70924    0.26640    0.07920    1.000
    N10      N        0.10128    0.72453    0.44836    1.000
    N11      N        0.81642    0.45470    0.91674    1.000
    N12      N        0.12086    0.05799    0.54669    1.000
    N13      N        0.29076    0.73360    0.57920    1.000
    N14      N        0.89872    0.27547    0.94836    1.000
    N15      N        0.18358    0.54530    0.41674    1.000
    N16      N        0.87914    0.94201    0.04669    1.000
