# CIF file generated by openbabel 3.1.0, see https://openbabel.org
data_I
_chemical_name_common 'LAGNEO_clean'
_cell_length_a 10.0463
_cell_length_b 10.4265
_cell_length_c 12.7385
_cell_angle_alpha 109.095
_cell_angle_beta 95.262
_cell_angle_gamma 118.275
_space_group_name_H-M_alt 'P 1'
_space_group_name_Hall 'P 1'
loop_
    _symmetry_equiv_pos_as_xyz
    x,y,z
loop_
    _atom_site_label
    _atom_site_type_symbol
    _atom_site_fract_x
    _atom_site_fract_y
    _atom_site_fract_z
    _atom_site_occupancy
    Y1       Y        0.52661    0.97810    0.69776    1.000
    Y2       Y        0.47339    0.02190    0.30224    1.000
    H1       H        0.93130    0.86740    0.80110    1.000
    H2       H        0.87130    0.12130    0.08260    1.000
    H3       H        0.69500    0.54910    0.90810    1.000
    H4       H        0.31970    0.24050    0.97220    1.000
    H5       H        0.94140    0.06230    0.67440    1.000
    H6       H        0.85530    0.98280    0.33760    1.000
    H7       H        0.06870    0.13260    0.19890    1.000
    H8       H        0.12870    0.87870    0.91740    1.000
    H9       H        0.30500    0.45090    0.09190    1.000
    H10      H        0.68030    0.75950    0.02780    1.000
    H11      H        0.05860    0.93770    0.32560    1.000
    H12      H        0.14470    0.01720    0.66240    1.000
    C1       C        0.88000    0.99260    0.92970    1.000
    C2       C        0.95870    0.92100    0.88150    1.000
    C3       C        0.92290    0.07200    0.04890    1.000
    C4       C        0.75080    0.98410    0.85250    1.000
    C5       C        0.50940    0.37290    0.92770    1.000
    C6       C        0.61630    0.52890    0.94500    1.000
    C7       C        0.39250    0.34480    0.98320    1.000
    C8       C        0.51530    0.23380    0.84780    1.000
    C9       C        0.87750    0.02770    0.50740    1.000
    C10      C        0.96500    0.03740    0.60440    1.000
    C11      C        0.91330    0.98990    0.40280    1.000
    C12      C        0.74120    0.05170    0.51380    1.000
    C13      C        0.12000    0.00740    0.07030    1.000
    C14      C        0.04130    0.07900    0.11850    1.000
    C15      C        0.07710    0.92800    0.95110    1.000
    C16      C        0.24920    0.01590    0.14750    1.000
    C17      C        0.49060    0.62710    0.07230    1.000
    C18      C        0.38370    0.47110    0.05500    1.000
    C19      C        0.60750    0.65520    0.01680    1.000
    C20      C        0.48470    0.76620    0.15220    1.000
    C21      C        0.12250    0.97230    0.49260    1.000
    C22      C        0.03500    0.96260    0.39560    1.000
    C23      C        0.08670    0.01010    0.59720    1.000
    C24      C        0.25880    0.94830    0.48620    1.000
    O1       O        0.69600    0.88750    0.74670    1.000
    O2       O        0.70020    0.07300    0.89120    1.000
    O3       O        0.61560    0.26020    0.79110    1.000
    O4       O        0.42140    0.09540    0.83800    1.000
    O5       O        0.71250    0.08500    0.60980    1.000
    O6       O        0.66300    0.03260    0.42210    1.000
    O7       O        0.30400    0.11250    0.25330    1.000
    O8       O        0.29980    0.92700    0.10880    1.000
    O9       O        0.38440    0.73980    0.20890    1.000
    O10      O        0.57860    0.90460    0.16200    1.000
    O11      O        0.28750    0.91500    0.39020    1.000
    O12      O        0.33700    0.96740    0.57790    1.000
