# CIF file generated by openbabel 3.1.0, see https://openbabel.org
data_I
_chemical_name_common 'image0'
_cell_length_a 33.226
_cell_length_b 10.372
_cell_length_c 27.776
_cell_angle_alpha 90
_cell_angle_beta 107.061
_cell_angle_gamma 90
_space_group_name_H-M_alt 'P 1'
_space_group_name_Hall 'P 1'
loop_
    _symmetry_equiv_pos_as_xyz
    x,y,z
loop_
    _atom_site_label
    _atom_site_type_symbol
    _atom_site_fract_x
    _atom_site_fract_y
    _atom_site_fract_z
    _atom_site_occupancy
    Gd1      Gd       0.55563    0.10506    0.00931    1.000
    O1       O        0.12027    0.64620    0.07913    1.000
    O2       O        0.12574    0.49740    0.02601    1.000
    O3       O        0.44253    0.94550    0.42982    1.000
    O4       O        0.49621    0.80490    0.44910    1.000
    O5       O        0.47569    0.07500    0.03662    1.000
    O6       O        0.52577    0.21820    0.06531    1.000
    C1       C        0.14146    0.56410    0.06465    1.000
    C2       C        0.18707    0.54260    0.09458    1.000
    C3       C        0.20816    0.64130    0.12569    1.000
    H1       H        0.19370    0.71530    0.12980    1.000
    C4       C        0.25086    0.62950    0.15067    1.000
    H2       H        0.26500    0.69560    0.17150    1.000
    C5       C        0.27248    0.51900    0.14453    1.000
    C6       C        0.25139    0.42020    0.11341    1.000
    H3       H        0.26590    0.34620    0.10930    1.000
    C7       C        0.20869    0.43200    0.08844    1.000
    H4       H        0.19460    0.36590    0.06760    1.000
    C8       C        0.31926    0.51180    0.16897    1.000
    C9       C        0.33799    0.57410    0.21456    1.000
    H5       H        0.32120    0.62040    0.22990    1.000
    C10      C        0.38106    0.56870    0.23753    1.000
    C11      C        0.40587    0.50050    0.21355    1.000
    H6       H        0.43480    0.49670    0.22840    1.000
    C12      C        0.38812    0.43770    0.16770    1.000
    C13      C        0.34466    0.44360    0.14642    1.000
    H7       H        0.33240    0.40060    0.11630    1.000
    C14      C        0.40090    0.63580    0.28623    1.000
    C15      C        0.38245    0.74280    0.30030    1.000
    H8       H        0.35670    0.77150    0.27950    1.000
    C16      C        0.40113    0.80880    0.34448    1.000
    H9       H        0.38760    0.87960    0.35320    1.000
    C17      C        0.43971    0.77000    0.37563    1.000
    C18      C        0.45831    0.66340    0.36242    1.000
    H10      H        0.48410    0.63510    0.38330    1.000
    C19      C        0.43912    0.59710    0.31826    1.000
    H11      H        0.45230    0.52480    0.31010    1.000
    C20      C        0.46104    0.84630    0.42220    1.000
    C21      C        0.41500    0.36690    0.14230    1.000
    C22      C        0.45499    0.41130    0.14443    1.000
    H12      H        0.46560    0.48490    0.16300    1.000
    C23      C        0.47918    0.34690    0.11920    1.000
    H13      H        0.50580    0.37780    0.12090    1.000
    C24      C        0.46428    0.23730    0.09152    1.000
    C25      C        0.42473    0.19280    0.08937    1.000
    H14      H        0.41430    0.11920    0.07070    1.000
    C26      C        0.40032    0.25620    0.11467    1.000
    H15      H        0.37380    0.22430    0.11310    1.000
    C27      C        0.49038    0.17250    0.06282    1.000
    O7       O        0.57566    0.32820    0.00410    1.000
    S1       S        0.57133    0.44530    0.03507    1.000
    C28      C        0.60250    0.57080    0.02080    1.000
    H16      H        0.63170    0.54920    0.03400    1.000
    H17      H        0.59700    0.64990    0.03570    1.000
    H18      H        0.59550    0.58110    0.98490    1.000
    S2       S        0.61240    0.40730    0.03060    1.000
    C29      C        0.61010    0.44110    0.09260    1.000
    H19      H        0.61470    0.36310    0.11210    1.000
    H20      H        0.58300    0.47580    0.09100    1.000
    H21      H        0.63160    0.50270    0.10830    1.000
    C30      C        0.59170    0.55110    0.99750    1.000
    H22      H        0.58840    0.53970    0.96230    1.000
    H23      H        0.61060    0.62140    0.01020    1.000
    H24      H        0.56480    0.56970    0.00220    1.000
    C31      C        0.51880    0.50340    0.00600    1.000
    H25      H        0.53060    0.43920    0.03100    1.000
    H26      H        0.52750    0.58750    0.01950    1.000
    H27      H        0.52830    0.48910    0.97700    1.000
    Gd2      Gd       0.05563    0.60506    0.00931    1.000
    O8       O        0.62027    0.14620    0.07913    1.000
    O9       O        0.62574    0.99740    0.02601    1.000
    O10      O        0.94253    0.44550    0.42982    1.000
    O11      O        0.99621    0.30490    0.44910    1.000
    O12      O        0.97569    0.57500    0.03662    1.000
    O13      O        0.02577    0.71820    0.06531    1.000
    C32      C        0.64146    0.06410    0.06465    1.000
    C33      C        0.68707    0.04260    0.09458    1.000
    C34      C        0.70816    0.14130    0.12569    1.000
    H28      H        0.69370    0.21530    0.12980    1.000
    C35      C        0.75086    0.12950    0.15067    1.000
    H29      H        0.76500    0.19560    0.17150    1.000
    C36      C        0.77248    0.01900    0.14453    1.000
    C37      C        0.75139    0.92020    0.11341    1.000
    H30      H        0.76590    0.84620    0.10930    1.000
    C38      C        0.70869    0.93200    0.08844    1.000
    H31      H        0.69460    0.86590    0.06760    1.000
    C39      C        0.81926    0.01180    0.16897    1.000
    C40      C        0.83799    0.07410    0.21456    1.000
    H32      H        0.82120    0.12040    0.22990    1.000
    C41      C        0.88106    0.06870    0.23753    1.000
    C42      C        0.90587    0.00050    0.21355    1.000
    H33      H        0.93480    0.99670    0.22840    1.000
    C43      C        0.88812    0.93770    0.16770    1.000
    C44      C        0.84466    0.94360    0.14642    1.000
    H34      H        0.83240    0.90060    0.11630    1.000
    C45      C        0.90090    0.13580    0.28623    1.000
    C46      C        0.88245    0.24280    0.30030    1.000
    H35      H        0.85670    0.27150    0.27950    1.000
    C47      C        0.90113    0.30880    0.34448    1.000
    H36      H        0.88760    0.37960    0.35320    1.000
    C48      C        0.93971    0.27000    0.37563    1.000
    C49      C        0.95831    0.16340    0.36242    1.000
    H37      H        0.98410    0.13510    0.38330    1.000
    C50      C        0.93912    0.09710    0.31826    1.000
    H38      H        0.95230    0.02480    0.31010    1.000
    C51      C        0.96104    0.34630    0.42220    1.000
    C52      C        0.91500    0.86690    0.14230    1.000
    C53      C        0.95499    0.91130    0.14443    1.000
    H39      H        0.96560    0.98490    0.16300    1.000
    C54      C        0.97918    0.84690    0.11920    1.000
    H40      H        0.00580    0.87780    0.12090    1.000
    C55      C        0.96428    0.73730    0.09152    1.000
    C56      C        0.92473    0.69280    0.08937    1.000
    H41      H        0.91430    0.61920    0.07070    1.000
    C57      C        0.90032    0.75620    0.11467    1.000
    H42      H        0.87380    0.72430    0.11310    1.000
    C58      C        0.99038    0.67250    0.06282    1.000
    O14      O        0.07566    0.82820    0.00410    1.000
    S3       S        0.07133    0.94530    0.03507    1.000
    C59      C        0.10250    0.07080    0.02080    1.000
    H43      H        0.13170    0.04920    0.03400    1.000
    H44      H        0.09700    0.14990    0.03570    1.000
    H45      H        0.09550    0.08110    0.98490    1.000
    S4       S        0.11240    0.90730    0.03060    1.000
    C60      C        0.11010    0.94110    0.09260    1.000
    H46      H        0.11470    0.86310    0.11210    1.000
    H47      H        0.08300    0.97580    0.09100    1.000
    H48      H        0.13160    0.00270    0.10830    1.000
    C61      C        0.09170    0.05110    0.99750    1.000
    H49      H        0.08840    0.03970    0.96230    1.000
    H50      H        0.11060    0.12140    0.01020    1.000
    H51      H        0.06480    0.06970    0.00220    1.000
    C62      C        0.01880    0.00340    0.00600    1.000
    H52      H        0.03060    0.93920    0.03100    1.000
    H53      H        0.02750    0.08750    0.01950    1.000
    H54      H        0.02830    0.98910    0.97700    1.000
    Gd3      Gd       0.44437    0.10506    0.49069    1.000
    O15      O        0.87973    0.64620    0.42087    1.000
    O16      O        0.87426    0.49740    0.47399    1.000
    O17      O        0.55747    0.94550    0.07018    1.000
    O18      O        0.50379    0.80490    0.05090    1.000
    O19      O        0.52431    0.07500    0.46338    1.000
    O20      O        0.47423    0.21820    0.43469    1.000
    C63      C        0.85854    0.56410    0.43535    1.000
    C64      C        0.81293    0.54260    0.40542    1.000
    C65      C        0.79184    0.64130    0.37431    1.000
    H55      H        0.80630    0.71530    0.37020    1.000
    C66      C        0.74914    0.62950    0.34933    1.000
    H56      H        0.73500    0.69560    0.32850    1.000
    C67      C        0.72752    0.51900    0.35547    1.000
    C68      C        0.74861    0.42020    0.38659    1.000
    H57      H        0.73410    0.34620    0.39070    1.000
    C69      C        0.79131    0.43200    0.41156    1.000
    H58      H        0.80540    0.36590    0.43240    1.000
    C70      C        0.68074    0.51180    0.33103    1.000
    C71      C        0.66201    0.57410    0.28544    1.000
    H59      H        0.67880    0.62040    0.27010    1.000
    C72      C        0.61894    0.56870    0.26247    1.000
    C73      C        0.59413    0.50050    0.28645    1.000
    H60      H        0.56520    0.49670    0.27160    1.000
    C74      C        0.61188    0.43770    0.33230    1.000
    C75      C        0.65534    0.44360    0.35358    1.000
    H61      H        0.66760    0.40060    0.38370    1.000
    C76      C        0.59910    0.63580    0.21377    1.000
    C77      C        0.61755    0.74280    0.19970    1.000
    H62      H        0.64330    0.77150    0.22050    1.000
    C78      C        0.59887    0.80880    0.15552    1.000
    H63      H        0.61240    0.87960    0.14680    1.000
    C79      C        0.56029    0.77000    0.12437    1.000
    C80      C        0.54169    0.66340    0.13758    1.000
    H64      H        0.51590    0.63510    0.11670    1.000
    C81      C        0.56088    0.59710    0.18174    1.000
    H65      H        0.54770    0.52480    0.18990    1.000
    C82      C        0.53896    0.84630    0.07780    1.000
    C83      C        0.58500    0.36690    0.35770    1.000
    C84      C        0.54501    0.41130    0.35557    1.000
    H66      H        0.53440    0.48490    0.33700    1.000
    C85      C        0.52082    0.34690    0.38080    1.000
    H67      H        0.49420    0.37780    0.37910    1.000
    C86      C        0.53572    0.23730    0.40848    1.000
    C87      C        0.57527    0.19280    0.41063    1.000
    H68      H        0.58570    0.11920    0.42930    1.000
    C88      C        0.59968    0.25620    0.38533    1.000
    H69      H        0.62620    0.22430    0.38690    1.000
    C89      C        0.50962    0.17250    0.43718    1.000
    O21      O        0.42434    0.32820    0.49590    1.000
    S5       S        0.42867    0.44530    0.46493    1.000
    C90      C        0.39750    0.57080    0.47920    1.000
    H70      H        0.36830    0.54920    0.46600    1.000
    H71      H        0.40300    0.64990    0.46430    1.000
    H72      H        0.40450    0.58110    0.51510    1.000
    S6       S        0.38760    0.40730    0.46940    1.000
    C91      C        0.38990    0.44110    0.40740    1.000
    H73      H        0.38530    0.36310    0.38790    1.000
    H74      H        0.41700    0.47580    0.40900    1.000
    H75      H        0.36840    0.50270    0.39170    1.000
    C92      C        0.40830    0.55110    0.50250    1.000
    H76      H        0.41160    0.53970    0.53770    1.000
    H77      H        0.38940    0.62140    0.48980    1.000
    H78      H        0.43520    0.56970    0.49780    1.000
    C93      C        0.48120    0.50340    0.49400    1.000
    H79      H        0.46940    0.43920    0.46900    1.000
    H80      H        0.47250    0.58750    0.48050    1.000
    H81      H        0.47170    0.48910    0.52300    1.000
    Gd4      Gd       0.94437    0.60506    0.49069    1.000
    O22      O        0.37973    0.14620    0.42087    1.000
    O23      O        0.37426    0.99740    0.47399    1.000
    O24      O        0.05747    0.44550    0.07018    1.000
    O25      O        0.00379    0.30490    0.05090    1.000
    O26      O        0.02431    0.57500    0.46338    1.000
    O27      O        0.97423    0.71820    0.43469    1.000
    C94      C        0.35854    0.06410    0.43535    1.000
    C95      C        0.31293    0.04260    0.40542    1.000
    C96      C        0.29184    0.14130    0.37431    1.000
    H82      H        0.30630    0.21530    0.37020    1.000
    C97      C        0.24914    0.12950    0.34933    1.000
    H83      H        0.23500    0.19560    0.32850    1.000
    C98      C        0.22752    0.01900    0.35547    1.000
    C99      C        0.24861    0.92020    0.38659    1.000
    H84      H        0.23410    0.84620    0.39070    1.000
    C100     C        0.29131    0.93200    0.41156    1.000
    H85      H        0.30540    0.86590    0.43240    1.000
    C101     C        0.18074    0.01180    0.33103    1.000
    C102     C        0.16201    0.07410    0.28544    1.000
    H86      H        0.17880    0.12040    0.27010    1.000
    C103     C        0.11894    0.06870    0.26247    1.000
    C104     C        0.09413    0.00050    0.28645    1.000
    H87      H        0.06520    0.99670    0.27160    1.000
    C105     C        0.11188    0.93770    0.33230    1.000
    C106     C        0.15534    0.94360    0.35358    1.000
    H88      H        0.16760    0.90060    0.38370    1.000
    C107     C        0.09910    0.13580    0.21377    1.000
    C108     C        0.11755    0.24280    0.19970    1.000
    H89      H        0.14330    0.27150    0.22050    1.000
    C109     C        0.09887    0.30880    0.15552    1.000
    H90      H        0.11240    0.37960    0.14680    1.000
    C110     C        0.06029    0.27000    0.12437    1.000
    C111     C        0.04169    0.16340    0.13758    1.000
    H91      H        0.01590    0.13510    0.11670    1.000
    C112     C        0.06088    0.09710    0.18174    1.000
    H92      H        0.04770    0.02480    0.18990    1.000
    C113     C        0.03896    0.34630    0.07780    1.000
    C114     C        0.08500    0.86690    0.35770    1.000
    C115     C        0.04501    0.91130    0.35557    1.000
    H93      H        0.03440    0.98490    0.33700    1.000
    C116     C        0.02082    0.84690    0.38080    1.000
    H94      H        0.99420    0.87780    0.37910    1.000
    C117     C        0.03572    0.73730    0.40848    1.000
    C118     C        0.07527    0.69280    0.41063    1.000
    H95      H        0.08570    0.61920    0.42930    1.000
    C119     C        0.09968    0.75620    0.38533    1.000
    H96      H        0.12620    0.72430    0.38690    1.000
    C120     C        0.00962    0.67250    0.43718    1.000
    O28      O        0.92434    0.82820    0.49590    1.000
    S7       S        0.92867    0.94530    0.46493    1.000
    C121     C        0.89750    0.07080    0.47920    1.000
    H97      H        0.86830    0.04920    0.46600    1.000
    H98      H        0.90300    0.14990    0.46430    1.000
    H99      H        0.90450    0.08110    0.51510    1.000
    S8       S        0.88760    0.90730    0.46940    1.000
    C122     C        0.88990    0.94110    0.40740    1.000
    H100     H        0.88530    0.86310    0.38790    1.000
    H101     H        0.91700    0.97580    0.40900    1.000
    H102     H        0.86840    0.00270    0.39170    1.000
    C123     C        0.90830    0.05110    0.50250    1.000
    H103     H        0.91160    0.03970    0.53770    1.000
    H104     H        0.88940    0.12140    0.48980    1.000
    H105     H        0.93520    0.06970    0.49780    1.000
    C124     C        0.98120    0.00340    0.49400    1.000
    H106     H        0.96940    0.93920    0.46900    1.000
    H107     H        0.97250    0.08750    0.48050    1.000
    H108     H        0.97170    0.98910    0.52300    1.000
    Gd5      Gd       0.44437    0.89493    0.99069    1.000
    O29      O        0.87973    0.35380    0.92087    1.000
    O30      O        0.87426    0.50260    0.97399    1.000
    O31      O        0.55747    0.05450    0.57018    1.000
    O32      O        0.50379    0.19510    0.55090    1.000
    O33      O        0.52431    0.92500    0.96338    1.000
    O34      O        0.47423    0.78180    0.93469    1.000
    C125     C        0.85854    0.43590    0.93535    1.000
    C126     C        0.81293    0.45740    0.90542    1.000
    C127     C        0.79184    0.35870    0.87431    1.000
    H109     H        0.80630    0.28470    0.87020    1.000
    C128     C        0.74914    0.37050    0.84933    1.000
    H110     H        0.73500    0.30440    0.82850    1.000
    C129     C        0.72752    0.48100    0.85547    1.000
    C130     C        0.74861    0.57980    0.88659    1.000
    H111     H        0.73410    0.65380    0.89070    1.000
    C131     C        0.79131    0.56800    0.91156    1.000
    H112     H        0.80540    0.63410    0.93240    1.000
    C132     C        0.68074    0.48820    0.83103    1.000
    C133     C        0.66201    0.42590    0.78544    1.000
    H113     H        0.67880    0.37960    0.77010    1.000
    C134     C        0.61894    0.43130    0.76247    1.000
    C135     C        0.59413    0.49950    0.78645    1.000
    H114     H        0.56520    0.50330    0.77160    1.000
    C136     C        0.61188    0.56230    0.83230    1.000
    C137     C        0.65534    0.55640    0.85358    1.000
    H115     H        0.66760    0.59940    0.88370    1.000
    C138     C        0.59910    0.36420    0.71377    1.000
    C139     C        0.61755    0.25720    0.69970    1.000
    H116     H        0.64330    0.22850    0.72050    1.000
    C140     C        0.59887    0.19120    0.65552    1.000
    H117     H        0.61240    0.12040    0.64680    1.000
    C141     C        0.56029    0.23000    0.62437    1.000
    C142     C        0.54169    0.33660    0.63758    1.000
    H118     H        0.51590    0.36490    0.61670    1.000
    C143     C        0.56088    0.40290    0.68174    1.000
    H119     H        0.54770    0.47520    0.68990    1.000
    C144     C        0.53896    0.15370    0.57780    1.000
    C145     C        0.58500    0.63310    0.85770    1.000
    C146     C        0.54501    0.58870    0.85557    1.000
    H120     H        0.53440    0.51510    0.83700    1.000
    C147     C        0.52082    0.65310    0.88080    1.000
    H121     H        0.49420    0.62220    0.87910    1.000
    C148     C        0.53572    0.76270    0.90848    1.000
    C149     C        0.57527    0.80720    0.91063    1.000
    H122     H        0.58570    0.88080    0.92930    1.000
    C150     C        0.59968    0.74380    0.88533    1.000
    H123     H        0.62620    0.77570    0.88690    1.000
    C151     C        0.50962    0.82750    0.93718    1.000
    O35      O        0.42434    0.67180    0.99590    1.000
    S9       S        0.42867    0.55470    0.96493    1.000
    C152     C        0.39750    0.42920    0.97920    1.000
    H124     H        0.36830    0.45080    0.96600    1.000
    H125     H        0.40300    0.35010    0.96430    1.000
    H126     H        0.40450    0.41890    0.01510    1.000
    S10      S        0.38760    0.59270    0.96940    1.000
    C153     C        0.38990    0.55890    0.90740    1.000
    H127     H        0.38530    0.63690    0.88790    1.000
    H128     H        0.41700    0.52420    0.90900    1.000
    H129     H        0.36840    0.49730    0.89170    1.000
    C154     C        0.40830    0.44890    0.00250    1.000
    H130     H        0.41160    0.46030    0.03770    1.000
    H131     H        0.38940    0.37860    0.98980    1.000
    H132     H        0.43520    0.43030    0.99780    1.000
    C155     C        0.48120    0.49660    0.99400    1.000
    H133     H        0.46940    0.56080    0.96900    1.000
    H134     H        0.47250    0.41250    0.98050    1.000
    H135     H        0.47170    0.51090    0.02300    1.000
    Gd6      Gd       0.94437    0.39494    0.99069    1.000
    O36      O        0.37973    0.85380    0.92087    1.000
    O37      O        0.37426    0.00260    0.97399    1.000
    O38      O        0.05747    0.55450    0.57018    1.000
    O39      O        0.00379    0.69510    0.55090    1.000
    O40      O        0.02431    0.42500    0.96338    1.000
    O41      O        0.97423    0.28180    0.93469    1.000
    C156     C        0.35854    0.93590    0.93535    1.000
    C157     C        0.31293    0.95740    0.90542    1.000
    C158     C        0.29184    0.85870    0.87431    1.000
    H136     H        0.30630    0.78470    0.87020    1.000
    C159     C        0.24914    0.87050    0.84933    1.000
    H137     H        0.23500    0.80440    0.82850    1.000
    C160     C        0.22752    0.98100    0.85547    1.000
    C161     C        0.24861    0.07980    0.88659    1.000
    H138     H        0.23410    0.15380    0.89070    1.000
    C162     C        0.29131    0.06800    0.91156    1.000
    H139     H        0.30540    0.13410    0.93240    1.000
    C163     C        0.18074    0.98820    0.83103    1.000
    C164     C        0.16201    0.92590    0.78544    1.000
    H140     H        0.17880    0.87960    0.77010    1.000
    C165     C        0.11894    0.93130    0.76247    1.000
    C166     C        0.09413    0.99950    0.78645    1.000
    H141     H        0.06520    0.00330    0.77160    1.000
    C167     C        0.11188    0.06230    0.83230    1.000
    C168     C        0.15534    0.05640    0.85358    1.000
    H142     H        0.16760    0.09940    0.88370    1.000
    C169     C        0.09910    0.86420    0.71377    1.000
    C170     C        0.11755    0.75720    0.69970    1.000
    H143     H        0.14330    0.72850    0.72050    1.000
    C171     C        0.09887    0.69120    0.65552    1.000
    H144     H        0.11240    0.62040    0.64680    1.000
    C172     C        0.06029    0.73000    0.62437    1.000
    C173     C        0.04169    0.83660    0.63758    1.000
    H145     H        0.01590    0.86490    0.61670    1.000
    C174     C        0.06088    0.90290    0.68174    1.000
    H146     H        0.04770    0.97520    0.68990    1.000
    C175     C        0.03896    0.65370    0.57780    1.000
    C176     C        0.08500    0.13310    0.85770    1.000
    C177     C        0.04501    0.08870    0.85557    1.000
    H147     H        0.03440    0.01510    0.83700    1.000
    C178     C        0.02082    0.15310    0.88080    1.000
    H148     H        0.99420    0.12220    0.87910    1.000
    C179     C        0.03572    0.26270    0.90848    1.000
    C180     C        0.07527    0.30720    0.91063    1.000
    H149     H        0.08570    0.38080    0.92930    1.000
    C181     C        0.09968    0.24380    0.88533    1.000
    H150     H        0.12620    0.27570    0.88690    1.000
    C182     C        0.00962    0.32750    0.93718    1.000
    O42      O        0.92434    0.17180    0.99590    1.000
    S11      S        0.92867    0.05470    0.96493    1.000
    C183     C        0.89750    0.92920    0.97920    1.000
    H151     H        0.86830    0.95080    0.96600    1.000
    H152     H        0.90300    0.85010    0.96430    1.000
    H153     H        0.90450    0.91890    0.01510    1.000
    S12      S        0.88760    0.09270    0.96940    1.000
    C184     C        0.88990    0.05890    0.90740    1.000
    H154     H        0.88530    0.13690    0.88790    1.000
    H155     H        0.91700    0.02420    0.90900    1.000
    H156     H        0.86840    0.99730    0.89170    1.000
    C185     C        0.90830    0.94890    0.00250    1.000
    H157     H        0.91160    0.96030    0.03770    1.000
    H158     H        0.88940    0.87860    0.98980    1.000
    H159     H        0.93520    0.93030    0.99780    1.000
    C186     C        0.98120    0.99660    0.99400    1.000
    H160     H        0.96940    0.06080    0.96900    1.000
    H161     H        0.97250    0.91250    0.98050    1.000
    H162     H        0.97170    0.01090    0.02300    1.000
    Gd7      Gd       0.55563    0.89493    0.50931    1.000
    O43      O        0.12027    0.35380    0.57913    1.000
    O44      O        0.12574    0.50260    0.52601    1.000
    O45      O        0.44253    0.05450    0.92982    1.000
    O46      O        0.49621    0.19510    0.94910    1.000
    O47      O        0.47569    0.92500    0.53662    1.000
    O48      O        0.52577    0.78180    0.56531    1.000
    C187     C        0.14146    0.43590    0.56465    1.000
    C188     C        0.18707    0.45740    0.59458    1.000
    C189     C        0.20816    0.35870    0.62569    1.000
    H163     H        0.19370    0.28470    0.62980    1.000
    C190     C        0.25086    0.37050    0.65067    1.000
    H164     H        0.26500    0.30440    0.67150    1.000
    C191     C        0.27248    0.48100    0.64453    1.000
    C192     C        0.25139    0.57980    0.61341    1.000
    H165     H        0.26590    0.65380    0.60930    1.000
    C193     C        0.20869    0.56800    0.58844    1.000
    H166     H        0.19460    0.63410    0.56760    1.000
    C194     C        0.31926    0.48820    0.66897    1.000
    C195     C        0.33799    0.42590    0.71456    1.000
    H167     H        0.32120    0.37960    0.72990    1.000
    C196     C        0.38106    0.43130    0.73753    1.000
    C197     C        0.40587    0.49950    0.71355    1.000
    H168     H        0.43480    0.50330    0.72840    1.000
    C198     C        0.38812    0.56230    0.66770    1.000
    C199     C        0.34466    0.55640    0.64642    1.000
    H169     H        0.33240    0.59940    0.61630    1.000
    C200     C        0.40090    0.36420    0.78623    1.000
    C201     C        0.38245    0.25720    0.80030    1.000
    H170     H        0.35670    0.22850    0.77950    1.000
    C202     C        0.40113    0.19120    0.84448    1.000
    H171     H        0.38760    0.12040    0.85320    1.000
    C203     C        0.43971    0.23000    0.87563    1.000
    C204     C        0.45831    0.33660    0.86242    1.000
    H172     H        0.48410    0.36490    0.88330    1.000
    C205     C        0.43912    0.40290    0.81826    1.000
    H173     H        0.45230    0.47520    0.81010    1.000
    C206     C        0.46104    0.15370    0.92220    1.000
    C207     C        0.41500    0.63310    0.64230    1.000
    C208     C        0.45499    0.58870    0.64443    1.000
    H174     H        0.46560    0.51510    0.66300    1.000
    C209     C        0.47918    0.65310    0.61920    1.000
    H175     H        0.50580    0.62220    0.62090    1.000
    C210     C        0.46428    0.76270    0.59152    1.000
    C211     C        0.42473    0.80720    0.58937    1.000
    H176     H        0.41430    0.88080    0.57070    1.000
    C212     C        0.40032    0.74380    0.61467    1.000
    H177     H        0.37380    0.77570    0.61310    1.000
    C213     C        0.49038    0.82750    0.56282    1.000
    O49      O        0.57566    0.67180    0.50410    1.000
    S13      S        0.57133    0.55470    0.53507    1.000
    C214     C        0.60250    0.42920    0.52080    1.000
    H178     H        0.63170    0.45080    0.53400    1.000
    H179     H        0.59700    0.35010    0.53570    1.000
    H180     H        0.59550    0.41890    0.48490    1.000
    S14      S        0.61240    0.59270    0.53060    1.000
    C215     C        0.61010    0.55890    0.59260    1.000
    H181     H        0.61470    0.63690    0.61210    1.000
    H182     H        0.58300    0.52420    0.59100    1.000
    H183     H        0.63160    0.49730    0.60830    1.000
    C216     C        0.59170    0.44890    0.49750    1.000
    H184     H        0.58840    0.46030    0.46230    1.000
    H185     H        0.61060    0.37860    0.51020    1.000
    H186     H        0.56480    0.43030    0.50220    1.000
    C217     C        0.51880    0.49660    0.50600    1.000
    H187     H        0.53060    0.56080    0.53100    1.000
    H188     H        0.52750    0.41250    0.51950    1.000
    H189     H        0.52830    0.51090    0.47700    1.000
    Gd8      Gd       0.05563    0.39494    0.50931    1.000
    O50      O        0.62027    0.85380    0.57913    1.000
    O51      O        0.62574    0.00260    0.52601    1.000
    O52      O        0.94253    0.55450    0.92982    1.000
    O53      O        0.99621    0.69510    0.94910    1.000
    O54      O        0.97569    0.42500    0.53662    1.000
    O55      O        0.02577    0.28180    0.56531    1.000
    C218     C        0.64146    0.93590    0.56465    1.000
    C219     C        0.68707    0.95740    0.59458    1.000
    C220     C        0.70816    0.85870    0.62569    1.000
    H190     H        0.69370    0.78470    0.62980    1.000
    C221     C        0.75086    0.87050    0.65067    1.000
    H191     H        0.76500    0.80440    0.67150    1.000
    C222     C        0.77248    0.98100    0.64453    1.000
    C223     C        0.75139    0.07980    0.61341    1.000
    H192     H        0.76590    0.15380    0.60930    1.000
    C224     C        0.70869    0.06800    0.58844    1.000
    H193     H        0.69460    0.13410    0.56760    1.000
    C225     C        0.81926    0.98820    0.66897    1.000
    C226     C        0.83799    0.92590    0.71456    1.000
    H194     H        0.82120    0.87960    0.72990    1.000
    C227     C        0.88106    0.93130    0.73753    1.000
    C228     C        0.90587    0.99950    0.71355    1.000
    H195     H        0.93480    0.00330    0.72840    1.000
    C229     C        0.88812    0.06230    0.66770    1.000
    C230     C        0.84466    0.05640    0.64642    1.000
    H196     H        0.83240    0.09940    0.61630    1.000
    C231     C        0.90090    0.86420    0.78623    1.000
    C232     C        0.88245    0.75720    0.80030    1.000
    H197     H        0.85670    0.72850    0.77950    1.000
    C233     C        0.90113    0.69120    0.84448    1.000
    H198     H        0.88760    0.62040    0.85320    1.000
    C234     C        0.93971    0.73000    0.87563    1.000
    C235     C        0.95831    0.83660    0.86242    1.000
    H199     H        0.98410    0.86490    0.88330    1.000
    C236     C        0.93912    0.90290    0.81826    1.000
    H200     H        0.95230    0.97520    0.81010    1.000
    C237     C        0.96104    0.65370    0.92220    1.000
    C238     C        0.91500    0.13310    0.64230    1.000
    C239     C        0.95499    0.08870    0.64443    1.000
    H201     H        0.96560    0.01510    0.66300    1.000
    C240     C        0.97918    0.15310    0.61920    1.000
    H202     H        0.00580    0.12220    0.62090    1.000
    C241     C        0.96428    0.26270    0.59152    1.000
    C242     C        0.92473    0.30720    0.58937    1.000
    H203     H        0.91430    0.38080    0.57070    1.000
    C243     C        0.90032    0.24380    0.61467    1.000
    H204     H        0.87380    0.27570    0.61310    1.000
    C244     C        0.99038    0.32750    0.56282    1.000
    O56      O        0.07566    0.17180    0.50410    1.000
    S15      S        0.07133    0.05470    0.53507    1.000
    C245     C        0.10250    0.92920    0.52080    1.000
    H205     H        0.13170    0.95080    0.53400    1.000
    H206     H        0.09700    0.85010    0.53570    1.000
    H207     H        0.09550    0.91890    0.48490    1.000
    S16      S        0.11240    0.09270    0.53060    1.000
    C246     C        0.11010    0.05890    0.59260    1.000
    H208     H        0.11470    0.13690    0.61210    1.000
    H209     H        0.08300    0.02420    0.59100    1.000
    H210     H        0.13160    0.99730    0.60830    1.000
    C247     C        0.09170    0.94890    0.49750    1.000
    H211     H        0.08840    0.96030    0.46230    1.000
    H212     H        0.11060    0.87860    0.51020    1.000
    H213     H        0.06480    0.93030    0.50220    1.000
    C248     C        0.01880    0.99660    0.50600    1.000
    H214     H        0.03060    0.06080    0.53100    1.000
    H215     H        0.02750    0.91250    0.51950    1.000
    H216     H        0.02830    0.01090    0.47700    1.000
