# CIF file generated by openbabel 3.1.0, see https://openbabel.org
data_I
_chemical_name_common 'PEKKAS_clean'
_cell_length_a 9.0148
_cell_length_b 9.0148
_cell_length_c 11.4645
_cell_angle_alpha 90
_cell_angle_beta 90
_cell_angle_gamma 120
_space_group_name_H-M_alt 'P 1'
_space_group_name_Hall 'P 1'
loop_
    _symmetry_equiv_pos_as_xyz
    x,y,z
loop_
    _atom_site_label
    _atom_site_type_symbol
    _atom_site_fract_x
    _atom_site_fract_y
    _atom_site_fract_z
    _atom_site_occupancy
    In1      In       0.50000    0.00000    0.66667    1.000
    In2      In       0.50000    0.50000    0.00000    1.000
    In3      In       0.00000    0.50000    0.33333    1.000
    C1       C        0.79100    0.20900    0.50000    1.000
    C2       C        0.69155    0.30845    0.50000    1.000
    C3       C        0.41800    0.20900    0.83333    1.000
    C4       C        0.61690    0.30845    0.83333    1.000
    C5       C        0.79100    0.58200    0.16667    1.000
    C6       C        0.69155    0.38310    0.16667    1.000
    C7       C        0.20900    0.79100    0.50000    1.000
    C8       C        0.30845    0.69155    0.50000    1.000
    C9       C        0.58200    0.79100    0.83333    1.000
    C10      C        0.38310    0.69155    0.83333    1.000
    C11      C        0.20900    0.41800    0.16667    1.000
    C12      C        0.30845    0.61690    0.16667    1.000
    O1       O        0.73450    0.07520    0.56290    1.000
    O2       O        0.55670    0.24350    0.55690    1.000
    O3       O        0.34070    0.26550    0.89623    1.000
    O4       O        0.68680    0.44330    0.89023    1.000
    O5       O        0.92480    0.65930    0.22957    1.000
    O6       O        0.75650    0.31320    0.22357    1.000
    O7       O        0.26550    0.92480    0.56290    1.000
    O8       O        0.44330    0.75650    0.55690    1.000
    O9       O        0.65930    0.73450    0.89623    1.000
    O10      O        0.31320    0.55670    0.89023    1.000
    O11      O        0.07520    0.34070    0.22957    1.000
    O12      O        0.24350    0.68680    0.22357    1.000
    O13      O        0.65930    0.92480    0.77043    1.000
    O14      O        0.31320    0.75650    0.77643    1.000
    O15      O        0.07520    0.73450    0.43710    1.000
    O16      O        0.24350    0.55670    0.44310    1.000
    O17      O        0.26550    0.34070    0.10377    1.000
    O18      O        0.44330    0.68680    0.10977    1.000
    O19      O        0.34070    0.07520    0.77043    1.000
    O20      O        0.68680    0.24350    0.77643    1.000
    O21      O        0.92480    0.26550    0.43710    1.000
    O22      O        0.75650    0.44330    0.44310    1.000
    O23      O        0.73450    0.65930    0.10377    1.000
    O24      O        0.55670    0.31320    0.10977    1.000
