# CIF file generated by openbabel 3.1.0, see https://openbabel.org
data_I
_chemical_name_common 'OBUFIB_clean'
_cell_length_a 13.6688
_cell_length_b 13.6688
_cell_length_c 19.3657
_cell_angle_alpha 96.2809
_cell_angle_beta 96.2809
_cell_angle_gamma 143.586
_space_group_name_H-M_alt 'P 1'
_space_group_name_Hall 'P 1'
loop_
    _symmetry_equiv_pos_as_xyz
    x,y,z
loop_
    _atom_site_label
    _atom_site_type_symbol
    _atom_site_fract_x
    _atom_site_fract_y
    _atom_site_fract_z
    _atom_site_occupancy
    Zn1      Zn       0.70516    0.65180    0.02887    1.000
    Zn2      Zn       0.62613    0.80173    0.99164    1.000
    H3       H        0.70810    0.59190    0.25930    1.000
    H4       H        0.70720    0.85760    0.33660    1.000
    H5       H        0.82460    0.93780    0.28630    1.000
    H6       H        0.13260    0.62040    0.89320    1.000
    H7       H        0.32770    0.66210    0.88730    1.000
    H8       H        0.58120    0.92440    0.09510    1.000
    H9       H        0.39460    0.89400    0.10580    1.000
    H10      H        0.93070    0.54770    0.90810    1.000
    H11      H        0.73640    0.50420    0.92350    1.000
    H12      H        0.05770    0.86650    0.11270    1.000
    H13      H        0.25500    0.90900    0.10510    1.000
    C14      C        0.69297    0.67933    0.18115    1.000
    C15      C        0.72316    0.67110    0.25763    1.000
    C16      C        0.76573    0.75905    0.31809    1.000
    C17      C        0.75110    0.70566    0.38618    1.000
    C18      C        0.80591    0.90233    0.32962    1.000
    C19      C        0.96969    0.06025    0.39737    1.000
    C20      C        0.22511    0.68551    0.93551    1.000
    C21      C        0.34118    0.70928    0.93243    1.000
    C22      C        0.48949    0.86269    0.05329    1.000
    C23      C        0.37784    0.84498    0.06001    1.000
    C24      C        0.24223    0.75645    0.00034    1.000
    C25      C        0.11650    0.73022    0.00606    1.000
    C26      C        0.95951    0.61283    0.95187    1.000
    C27      C        0.84389    0.58909    0.96069    1.000
    C28      C        0.02951    0.79793    0.07092    1.000
    C29      C        0.14998    0.82510    0.06644    1.000
    N30      N        0.47353    0.79681    0.99090    1.000
    N31      N        0.87990    0.68238    0.02005    1.000
    O32      O        0.63154    0.72022    0.17178    1.000
    O33      O        0.72120    0.63238    0.13411    1.000
    O34      O        0.78877    0.64681    0.39463    1.000
    O35      O        0.70102    0.72204    0.42684    1.000
    O36      O        0.07499    0.08279    0.41929    1.000
    O37      O        0.98464    0.16108    0.42670    1.000
    O38      O        0.52127    0.61461    0.02565    1.000
    H39      H        0.38539    0.47873    0.42271    1.000
    Zn40     Zn       0.34820    0.29484    0.47113    1.000
    Zn41     Zn       0.19827    0.37387    0.50836    1.000
    H42      H        0.40810    0.29190    0.24070    1.000
    H43      H        0.14240    0.29280    0.16340    1.000
    H44      H        0.06220    0.17540    0.21370    1.000
    H45      H        0.37960    0.86740    0.60680    1.000
    H46      H        0.33790    0.67230    0.61270    1.000
    H47      H        0.07560    0.41880    0.40490    1.000
    H48      H        0.10600    0.60540    0.39420    1.000
    H49      H        0.45230    0.06930    0.59190    1.000
    H50      H        0.49580    0.26360    0.57650    1.000
    H51      H        0.13350    0.94230    0.38730    1.000
    H52      H        0.09100    0.74500    0.39490    1.000
    C53      C        0.32067    0.30703    0.31885    1.000
    C54      C        0.32890    0.27684    0.24237    1.000
    C55      C        0.24095    0.23427    0.18191    1.000
    C56      C        0.29434    0.24890    0.11382    1.000
    C57      C        0.09767    0.19409    0.17038    1.000
    C58      C        0.93975    0.03031    0.10263    1.000
    C59      C        0.31449    0.77489    0.56449    1.000
    C60      C        0.29072    0.65882    0.56757    1.000
    C61      C        0.13731    0.51051    0.44671    1.000
    C62      C        0.15502    0.62216    0.43999    1.000
    C63      C        0.24355    0.75777    0.49966    1.000
    C64      C        0.26978    0.88350    0.49394    1.000
    C65      C        0.38717    0.04049    0.54813    1.000
    C66      C        0.41091    0.15611    0.53931    1.000
    C67      C        0.20207    0.97049    0.42908    1.000
    C68      C        0.17490    0.85002    0.43356    1.000
    N69      N        0.20319    0.52647    0.50910    1.000
    N70      N        0.31762    0.12010    0.47995    1.000
    O71      O        0.27978    0.36846    0.32822    1.000
    O72      O        0.36762    0.27880    0.36589    1.000
    O73      O        0.35319    0.21123    0.10537    1.000
    O74      O        0.27796    0.29898    0.07316    1.000
    O75      O        0.91721    0.92501    0.08071    1.000
    O76      O        0.83892    0.01536    0.07330    1.000
    O77      O        0.38539    0.47873    0.47435    1.000
    H78      H        0.52127    0.61461    0.07729    1.000
    Zn79     Zn       0.29484    0.34820    0.97113    1.000
    Zn80     Zn       0.37387    0.19827    0.00836    1.000
    H81      H        0.29190    0.40810    0.74070    1.000
    H82      H        0.29280    0.14240    0.66340    1.000
    H83      H        0.17540    0.06220    0.71370    1.000
    H84      H        0.86740    0.37960    0.10680    1.000
    H85      H        0.67230    0.33790    0.11270    1.000
    H86      H        0.41880    0.07560    0.90490    1.000
    H87      H        0.60540    0.10600    0.89420    1.000
    H88      H        0.06930    0.45230    0.09190    1.000
    H89      H        0.26360    0.49580    0.07650    1.000
    H90      H        0.94230    0.13350    0.88730    1.000
    H91      H        0.74500    0.09100    0.89490    1.000
    C92      C        0.30703    0.32067    0.81885    1.000
    C93      C        0.27684    0.32890    0.74237    1.000
    C94      C        0.23427    0.24095    0.68191    1.000
    C95      C        0.24890    0.29434    0.61382    1.000
    C96      C        0.19409    0.09767    0.67038    1.000
    C97      C        0.03031    0.93975    0.60263    1.000
    C98      C        0.77489    0.31449    0.06449    1.000
    C99      C        0.65882    0.29072    0.06757    1.000
    C100     C        0.51051    0.13731    0.94671    1.000
    C101     C        0.62216    0.15502    0.93999    1.000
    C102     C        0.75777    0.24355    0.99966    1.000
    C103     C        0.88350    0.26978    0.99394    1.000
    C104     C        0.04049    0.38717    0.04813    1.000
    C105     C        0.15611    0.41091    0.03931    1.000
    C106     C        0.97049    0.20207    0.92908    1.000
    C107     C        0.85002    0.17490    0.93356    1.000
    N108     N        0.52647    0.20319    0.00910    1.000
    N109     N        0.12010    0.31762    0.97995    1.000
    O110     O        0.36846    0.27978    0.82822    1.000
    O111     O        0.27880    0.36762    0.86589    1.000
    O112     O        0.21123    0.35319    0.60537    1.000
    O113     O        0.29898    0.27796    0.57316    1.000
    O114     O        0.92501    0.91721    0.58071    1.000
    O115     O        0.01536    0.83892    0.57330    1.000
    O116     O        0.47873    0.38539    0.97435    1.000
    H117     H        0.61461    0.52127    0.57729    1.000
    Zn118    Zn       0.65180    0.70516    0.52887    1.000
    Zn119    Zn       0.80173    0.62613    0.49164    1.000
    H120     H        0.59190    0.70810    0.75930    1.000
    H121     H        0.85760    0.70720    0.83660    1.000
    H122     H        0.93780    0.82460    0.78630    1.000
    H123     H        0.62040    0.13260    0.39320    1.000
    H124     H        0.66210    0.32770    0.38730    1.000
    H125     H        0.92440    0.58120    0.59510    1.000
    H126     H        0.89400    0.39460    0.60580    1.000
    H127     H        0.54770    0.93070    0.40810    1.000
    H128     H        0.50420    0.73640    0.42350    1.000
    H129     H        0.86650    0.05770    0.61270    1.000
    H130     H        0.90900    0.25500    0.60510    1.000
    C131     C        0.67933    0.69297    0.68115    1.000
    C132     C        0.67110    0.72316    0.75763    1.000
    C133     C        0.75905    0.76573    0.81809    1.000
    C134     C        0.70566    0.75110    0.88618    1.000
    C135     C        0.90233    0.80591    0.82962    1.000
    C136     C        0.06025    0.96969    0.89737    1.000
    C137     C        0.68551    0.22511    0.43551    1.000
    C138     C        0.70928    0.34118    0.43243    1.000
    C139     C        0.86269    0.48949    0.55329    1.000
    C140     C        0.84498    0.37784    0.56001    1.000
    C141     C        0.75645    0.24223    0.50034    1.000
    C142     C        0.73022    0.11650    0.50606    1.000
    C143     C        0.61283    0.95951    0.45187    1.000
    C144     C        0.58909    0.84389    0.46069    1.000
    C145     C        0.79793    0.02951    0.57092    1.000
    C146     C        0.82510    0.14998    0.56644    1.000
    N147     N        0.79681    0.47353    0.49090    1.000
    N148     N        0.68238    0.87990    0.52005    1.000
    O149     O        0.72022    0.63154    0.67178    1.000
    O150     O        0.63238    0.72120    0.63411    1.000
    O151     O        0.64681    0.78877    0.89463    1.000
    O152     O        0.72204    0.70102    0.92684    1.000
    O153     O        0.08279    0.07499    0.91929    1.000
    O154     O        0.16108    0.98464    0.92670    1.000
    O155     O        0.61461    0.52127    0.52565    1.000
    H156     H        0.47873    0.38539    0.92271    1.000
