# CIF file generated by openbabel 3.1.0, see https://openbabel.org
data_I
_chemical_name_common 'image0'
_cell_length_a 18.605
_cell_length_b 18.605
_cell_length_c 14.904
_cell_angle_alpha 90
_cell_angle_beta 90
_cell_angle_gamma 120
_space_group_name_H-M_alt 'P 1'
_space_group_name_Hall 'P 1'
loop_
    _symmetry_equiv_pos_as_xyz
    x,y,z
loop_
    _atom_site_label
    _atom_site_type_symbol
    _atom_site_fract_x
    _atom_site_fract_y
    _atom_site_fract_z
    _atom_site_occupancy
    O1       O        0.49370    0.91280    0.08290    1.000
    O2       O        0.40930    0.90190    0.93220    1.000
    O3       O        0.34390    0.76330    0.93780    1.000
    N1       N        0.42580    0.76900    0.08660    1.000
    C1       C        0.46500    0.76750    0.16850    1.000
    C2       C        0.52990    0.75010    0.16770    1.000
    C3       C        0.44270    0.84050    0.05370    1.000
    C4       C        0.39440    0.83430    0.96740    1.000
    O4       O        0.08720    0.58090    0.08290    1.000
    O5       O        0.09810    0.50740    0.93220    1.000
    O6       O        0.23670    0.58060    0.93780    1.000
    N2       N        0.23100    0.65680    0.08660    1.000
    C5       C        0.23250    0.69750    0.16850    1.000
    C6       C        0.24990    0.77980    0.16770    1.000
    C7       C        0.15950    0.60220    0.05370    1.000
    C8       C        0.16570    0.56010    0.96740    1.000
    O7       O        0.41910    0.50630    0.08290    1.000
    O8       O        0.49260    0.59070    0.93220    1.000
    O9       O        0.41940    0.65610    0.93780    1.000
    N3       N        0.34320    0.57420    0.08660    1.000
    C9       C        0.30250    0.53500    0.16850    1.000
    C10      C        0.22020    0.47010    0.16770    1.000
    C11      C        0.39780    0.55730    0.05370    1.000
    C12      C        0.43990    0.60560    0.96740    1.000
    O10      O        0.50630    0.08720    0.58290    1.000
    O11      O        0.59070    0.09810    0.43220    1.000
    O12      O        0.65610    0.23670    0.43780    1.000
    N4       N        0.57420    0.23100    0.58660    1.000
    C13      C        0.53500    0.23250    0.66850    1.000
    C14      C        0.47010    0.24990    0.66770    1.000
    C15      C        0.55730    0.15950    0.55370    1.000
    C16      C        0.60560    0.16570    0.46740    1.000
    O13      O        0.91280    0.41910    0.58290    1.000
    O14      O        0.90190    0.49260    0.43220    1.000
    O15      O        0.76330    0.41940    0.43780    1.000
    N5       N        0.76900    0.34320    0.58660    1.000
    C17      C        0.76750    0.30250    0.66850    1.000
    C18      C        0.75010    0.22020    0.66770    1.000
    C19      C        0.84050    0.39780    0.55370    1.000
    C20      C        0.83430    0.43990    0.46740    1.000
    O16      O        0.58090    0.49370    0.58290    1.000
    O17      O        0.50740    0.40930    0.43220    1.000
    O18      O        0.58060    0.34390    0.43780    1.000
    N6       N        0.65680    0.42580    0.58660    1.000
    C21      C        0.69750    0.46500    0.66850    1.000
    C22      C        0.77980    0.52990    0.66770    1.000
    C23      C        0.60220    0.44270    0.55370    1.000
    C24      C        0.56010    0.39440    0.46740    1.000
    O19      O        0.50630    0.08720    0.91710    1.000
    O20      O        0.59070    0.09810    0.06780    1.000
    O21      O        0.65610    0.23670    0.06220    1.000
    N7       N        0.57420    0.23100    0.91340    1.000
    C25      C        0.53500    0.23250    0.83150    1.000
    C26      C        0.47010    0.24990    0.83230    1.000
    C27      C        0.55730    0.15950    0.94630    1.000
    C28      C        0.60560    0.16570    0.03260    1.000
    O22      O        0.91280    0.41910    0.91710    1.000
    O23      O        0.90190    0.49260    0.06780    1.000
    O24      O        0.76330    0.41940    0.06220    1.000
    N8       N        0.76900    0.34320    0.91340    1.000
    C29      C        0.76750    0.30250    0.83150    1.000
    C30      C        0.75010    0.22020    0.83230    1.000
    C31      C        0.84050    0.39780    0.94630    1.000
    C32      C        0.83430    0.43990    0.03260    1.000
    O25      O        0.58090    0.49370    0.91710    1.000
    O26      O        0.50740    0.40930    0.06780    1.000
    O27      O        0.58060    0.34390    0.06220    1.000
    N9       N        0.65680    0.42580    0.91340    1.000
    C33      C        0.69750    0.46500    0.83150    1.000
    C34      C        0.77980    0.52990    0.83230    1.000
    C35      C        0.60220    0.44270    0.94630    1.000
    C36      C        0.56010    0.39440    0.03260    1.000
    O28      O        0.49370    0.91280    0.41710    1.000
    O29      O        0.40930    0.90190    0.56780    1.000
    O30      O        0.34390    0.76330    0.56220    1.000
    N10      N        0.42580    0.76900    0.41340    1.000
    C37      C        0.46500    0.76750    0.33150    1.000
    C38      C        0.52990    0.75010    0.33230    1.000
    C39      C        0.44270    0.84050    0.44630    1.000
    C40      C        0.39440    0.83430    0.53260    1.000
    O31      O        0.08720    0.58090    0.41710    1.000
    O32      O        0.09810    0.50740    0.56780    1.000
    O33      O        0.23670    0.58060    0.56220    1.000
    N11      N        0.23100    0.65680    0.41340    1.000
    C41      C        0.23250    0.69750    0.33150    1.000
    C42      C        0.24990    0.77980    0.33230    1.000
    C43      C        0.15950    0.60220    0.44630    1.000
    C44      C        0.16570    0.56010    0.53260    1.000
    O34      O        0.41910    0.50630    0.41710    1.000
    O35      O        0.49260    0.59070    0.56780    1.000
    O36      O        0.41940    0.65610    0.56220    1.000
    N12      N        0.34320    0.57420    0.41340    1.000
    C45      C        0.30250    0.53500    0.33150    1.000
    C46      C        0.22020    0.47010    0.33230    1.000
    C47      C        0.39780    0.55730    0.44630    1.000
    C48      C        0.43990    0.60560    0.53260    1.000
    Ni1      Ni       0.33333    0.66667    0.02000    1.000
    Ni2      Ni       0.66667    0.33333    0.52000    1.000
    Ni3      Ni       0.66667    0.33333    0.98000    1.000
    Ni4      Ni       0.33333    0.66667    0.48000    1.000
    C49      C        0.43420    0.77780    0.25000    1.000
    C50      C        0.56120    0.74120    0.25000    1.000
    C51      C        0.22220    0.65640    0.25000    1.000
    C52      C        0.25880    0.82000    0.25000    1.000
    C53      C        0.34360    0.56580    0.25000    1.000
    C54      C        0.18000    0.43880    0.25000    1.000
    C55      C        0.56580    0.22220    0.75000    1.000
    C56      C        0.43880    0.25880    0.75000    1.000
    C57      C        0.77780    0.34360    0.75000    1.000
    C58      C        0.74120    0.18000    0.75000    1.000
    C59      C        0.65640    0.43420    0.75000    1.000
    C60      C        0.82000    0.56120    0.75000    1.000
    Li1      Li       0.50000    0.00000    0.00000    1.000
    Li2      Li       0.00000    0.50000    0.00000    1.000
    Li3      Li       0.50000    0.50000    0.00000    1.000
    Li4      Li       0.50000    0.00000    0.50000    1.000
    Li5      Li       0.00000    0.50000    0.50000    1.000
    Li6      Li       0.50000    0.50000    0.50000    1.000
