# CIF file generated by openbabel 3.1.0, see https://openbabel.org
data_I
_chemical_name_common 'YUXQOY_clean'
_cell_length_a 11.72
_cell_length_b 13.7
_cell_length_c 21.05
_cell_angle_alpha 90
_cell_angle_beta 90
_cell_angle_gamma 90
_space_group_name_H-M_alt 'P 1'
_space_group_name_Hall 'P 1'
loop_
    _symmetry_equiv_pos_as_xyz
    x,y,z
loop_
    _atom_site_label
    _atom_site_type_symbol
    _atom_site_fract_x
    _atom_site_fract_y
    _atom_site_fract_z
    _atom_site_occupancy
    Cd1      Cd       0.00000    0.59869    0.43433    1.000
    Cd2      Cd       0.00000    0.40131    0.56567    1.000
    Cd3      Cd       0.00000    0.90131    0.93433    1.000
    Cd4      Cd       0.00000    0.09869    0.06567    1.000
    H1       H        0.78330    0.47240    0.38030    1.000
    H2       H        0.58530    0.47270    0.37850    1.000
    H3       H        0.58280    0.71380    0.48730    1.000
    H4       H        0.78070    0.71350    0.48900    1.000
    H5       H        0.78330    0.52760    0.61970    1.000
    H6       H        0.58530    0.52730    0.62150    1.000
    H7       H        0.58280    0.28620    0.51270    1.000
    H8       H        0.78070    0.28650    0.51100    1.000
    H9       H        0.21670    0.02760    0.88030    1.000
    H10      H        0.41470    0.02730    0.87850    1.000
    H11      H        0.41720    0.78620    0.98730    1.000
    H12      H        0.21930    0.78650    0.98900    1.000
    H13      H        0.21670    0.97240    0.11970    1.000
    H14      H        0.41470    0.97270    0.12150    1.000
    H15      H        0.41720    0.21380    0.01270    1.000
    H16      H        0.21930    0.21350    0.01100    1.000
    H17      H        0.21670    0.52760    0.61970    1.000
    H18      H        0.41470    0.52730    0.62150    1.000
    H19      H        0.41720    0.28620    0.51270    1.000
    H20      H        0.21930    0.28650    0.51100    1.000
    H21      H        0.21670    0.47240    0.38030    1.000
    H22      H        0.41470    0.47270    0.37850    1.000
    H23      H        0.41720    0.71380    0.48730    1.000
    H24      H        0.21930    0.71350    0.48900    1.000
    H25      H        0.78330    0.97240    0.11970    1.000
    H26      H        0.58530    0.97270    0.12150    1.000
    H27      H        0.58280    0.21380    0.01270    1.000
    H28      H        0.78070    0.21350    0.01100    1.000
    H29      H        0.78330    0.02760    0.88030    1.000
    H30      H        0.58530    0.02730    0.87850    1.000
    H31      H        0.58280    0.78620    0.98730    1.000
    H32      H        0.78070    0.78650    0.98900    1.000
    H33      H        0.00000    0.57720    0.67380    1.000
    H34      H        0.00000    0.65100    0.76900    1.000
    H35      H        0.00000    0.84300    0.59780    1.000
    H36      H        0.00000    0.97540    0.66260    1.000
    H37      H        0.00000    0.96920    0.73660    1.000
    H38      H        0.00000    0.42280    0.32620    1.000
    H39      H        0.00000    0.34900    0.23100    1.000
    H40      H        0.00000    0.15700    0.40220    1.000
    H41      H        0.00000    0.02460    0.33740    1.000
    H42      H        0.00000    0.03080    0.26340    1.000
    H43      H        0.00000    0.92280    0.17380    1.000
    H44      H        0.00000    0.84900    0.26900    1.000
    H45      H        0.00000    0.65700    0.09780    1.000
    H46      H        0.00000    0.52460    0.16260    1.000
    H47      H        0.00000    0.53080    0.23660    1.000
    H48      H        0.00000    0.07720    0.82620    1.000
    H49      H        0.00000    0.15100    0.73100    1.000
    H50      H        0.00000    0.34300    0.90220    1.000
    H51      H        0.00000    0.47540    0.83740    1.000
    H52      H        0.00000    0.46920    0.76340    1.000
    C1       C        0.74310    0.52080    0.40173    1.000
    C2       C        0.62450    0.52100    0.40069    1.000
    C3       C        0.56442    0.59330    0.43273    1.000
    C4       C        0.62290    0.66540    0.46581    1.000
    C5       C        0.74150    0.66520    0.46686    1.000
    C6       C        0.74310    0.47920    0.59827    1.000
    C7       C        0.62450    0.47900    0.59931    1.000
    C8       C        0.56442    0.40670    0.56727    1.000
    C9       C        0.62290    0.33460    0.53419    1.000
    C10      C        0.74150    0.33480    0.53314    1.000
    C11      C        0.25690    0.97920    0.90173    1.000
    C12      C        0.37550    0.97900    0.90069    1.000
    C13      C        0.43558    0.90670    0.93273    1.000
    C14      C        0.37710    0.83460    0.96581    1.000
    C15      C        0.25850    0.83480    0.96686    1.000
    C16      C        0.25690    0.02080    0.09827    1.000
    C17      C        0.37550    0.02100    0.09931    1.000
    C18      C        0.43558    0.09330    0.06727    1.000
    C19      C        0.37710    0.16540    0.03419    1.000
    C20      C        0.25850    0.16520    0.03314    1.000
    C21      C        0.25690    0.47920    0.59827    1.000
    C22      C        0.37550    0.47900    0.59931    1.000
    C23      C        0.43558    0.40670    0.56727    1.000
    C24      C        0.37710    0.33460    0.53419    1.000
    C25      C        0.25850    0.33480    0.53314    1.000
    C26      C        0.25690    0.52080    0.40173    1.000
    C27      C        0.37550    0.52100    0.40069    1.000
    C28      C        0.43558    0.59330    0.43273    1.000
    C29      C        0.37710    0.66540    0.46581    1.000
    C30      C        0.25850    0.66520    0.46686    1.000
    C31      C        0.74310    0.02080    0.09827    1.000
    C32      C        0.62450    0.02100    0.09931    1.000
    C33      C        0.56442    0.09330    0.06727    1.000
    C34      C        0.62290    0.16540    0.03419    1.000
    C35      C        0.74150    0.16520    0.03314    1.000
    C36      C        0.74310    0.97920    0.90173    1.000
    C37      C        0.62450    0.97900    0.90069    1.000
    C38      C        0.56442    0.90670    0.93273    1.000
    C39      C        0.62290    0.83460    0.96581    1.000
    C40      C        0.74150    0.83480    0.96686    1.000
    C41      C        0.00000    0.66120    0.56020    1.000
    C42      C        0.00000    0.70400    0.62660    1.000
    C43      C        0.00000    0.64460    0.67870    1.000
    C44      C        0.00000    0.68620    0.73920    1.000
    C45      C        0.00000    0.80220    0.63480    1.000
    C46      C        0.00000    0.84270    0.69490    1.000
    C47      C        0.00000    0.78380    0.74834    1.000
    C48      C        0.00000    0.82390    0.81473    1.000
    C49      C        0.00000    0.33880    0.43980    1.000
    C50      C        0.00000    0.29600    0.37340    1.000
    C51      C        0.00000    0.35540    0.32130    1.000
    C52      C        0.00000    0.31380    0.26080    1.000
    C53      C        0.00000    0.19780    0.36520    1.000
    C54      C        0.00000    0.15730    0.30510    1.000
    C55      C        0.00000    0.21620    0.25166    1.000
    C56      C        0.00000    0.17610    0.18527    1.000
    C57      C        0.00000    0.83880    0.06020    1.000
    C58      C        0.00000    0.79600    0.12660    1.000
    C59      C        0.00000    0.85540    0.17870    1.000
    C60      C        0.00000    0.81380    0.23920    1.000
    C61      C        0.00000    0.69780    0.13480    1.000
    C62      C        0.00000    0.65730    0.19490    1.000
    C63      C        0.00000    0.71620    0.24834    1.000
    C64      C        0.00000    0.67610    0.31473    1.000
    C65      C        0.00000    0.16120    0.93980    1.000
    C66      C        0.00000    0.20400    0.87340    1.000
    C67      C        0.00000    0.14460    0.82130    1.000
    C68      C        0.00000    0.18620    0.76080    1.000
    C69      C        0.00000    0.30220    0.86520    1.000
    C70      C        0.00000    0.34270    0.80510    1.000
    C71      C        0.00000    0.28380    0.75166    1.000
    C72      C        0.00000    0.32390    0.68527    1.000
    N1       N        0.80160    0.59290    0.43482    1.000
    N2       N        0.80160    0.40710    0.56518    1.000
    N3       N        0.19840    0.90710    0.93482    1.000
    N4       N        0.19840    0.09290    0.06518    1.000
    N5       N        0.19840    0.40710    0.56518    1.000
    N6       N        0.19840    0.59290    0.43482    1.000
    N7       N        0.80160    0.09290    0.06518    1.000
    N8       N        0.80160    0.90710    0.93482    1.000
    N9       N        0.00000    0.93950    0.69840    1.000
    N10      N        0.00000    0.06050    0.30160    1.000
    N11      N        0.00000    0.56050    0.19840    1.000
    N12      N        0.00000    0.43950    0.80160    1.000
    O1       O        0.00000    0.71710    0.51375    1.000
    O2       O        0.00000    0.57110    0.55392    1.000
    O3       O        0.00000    0.76680    0.86069    1.000
    O4       O        0.00000    0.91260    0.82263    1.000
    O5       O        0.00000    0.28290    0.48625    1.000
    O6       O        0.00000    0.42890    0.44608    1.000
    O7       O        0.00000    0.23320    0.13931    1.000
    O8       O        0.00000    0.08740    0.17737    1.000
    O9       O        0.00000    0.78290    0.01375    1.000
    O10      O        0.00000    0.92890    0.05392    1.000
    O11      O        0.00000    0.73320    0.36069    1.000
    O12      O        0.00000    0.58740    0.32263    1.000
    O13      O        0.00000    0.21710    0.98625    1.000
    O14      O        0.00000    0.07110    0.94608    1.000
    O15      O        0.00000    0.26680    0.63931    1.000
    O16      O        0.00000    0.41260    0.67737    1.000
