# CIF file generated by openbabel 3.1.0, see https://openbabel.org
data_I
_chemical_name_common 'image0'
_cell_length_a 10.817
_cell_length_b 27.553
_cell_length_c 9.048
_cell_angle_alpha 90
_cell_angle_beta 90
_cell_angle_gamma 90
_space_group_name_H-M_alt 'P 1'
_space_group_name_Hall 'P 1'
loop_
    _symmetry_equiv_pos_as_xyz
    x,y,z
loop_
    _atom_site_label
    _atom_site_type_symbol
    _atom_site_fract_x
    _atom_site_fract_y
    _atom_site_fract_z
    _atom_site_occupancy
    N1       N        0.21000    0.97800    0.19900    1.000
    N2       N        0.47500    0.02400    0.19700    1.000
    N3       N        0.00600    0.21600    0.31900    1.000
    N4       N        0.72500    0.26200    0.34200    1.000
    C1       C        0.16000    0.96400    0.29900    1.000
    C2       C        0.52600    0.03400    0.29800    1.000
    C3       C        0.06000    0.21100    0.21100    1.000
    C4       C        0.30900    0.77200    0.22800    1.000
    N5       N        0.79000    0.47800    0.80100    1.000
    N6       N        0.52500    0.52400    0.80300    1.000
    N7       N        0.99400    0.71600    0.68100    1.000
    N8       N        0.27500    0.76200    0.65800    1.000
    C5       C        0.84000    0.46400    0.70100    1.000
    C6       C        0.47400    0.53400    0.70200    1.000
    C7       C        0.94000    0.71100    0.78900    1.000
    C8       C        0.69100    0.27200    0.77200    1.000
    N9       N        0.79000    0.47800    0.19900    1.000
    N10      N        0.52500    0.52400    0.19700    1.000
    N11      N        0.99400    0.71600    0.31900    1.000
    N12      N        0.27500    0.76200    0.34200    1.000
    C9       C        0.84000    0.46400    0.29900    1.000
    C10      C        0.47400    0.53400    0.29800    1.000
    C11      C        0.94000    0.71100    0.21100    1.000
    C12      C        0.69100    0.27200    0.22800    1.000
    N13      N        0.21000    0.97800    0.80100    1.000
    N14      N        0.47500    0.02400    0.80300    1.000
    N15      N        0.00600    0.21600    0.68100    1.000
    N16      N        0.72500    0.26200    0.65800    1.000
    C13      C        0.16000    0.96400    0.70100    1.000
    C14      C        0.52600    0.03400    0.70200    1.000
    C15      C        0.06000    0.21100    0.78900    1.000
    C16      C        0.30900    0.77200    0.77200    1.000
    Cd1      Cd       0.34050    0.00000    0.00000    1.000
    Cd2      Cd       0.16210    0.19410    0.00000    1.000
    Cd3      Cd       0.39670    0.80110    0.00000    1.000
    N17      N        0.25800    0.08000    0.00000    1.000
    N18      N        0.41000    0.92000    0.00000    1.000
    C17      C        0.23200    0.11800    0.00000    1.000
    C18      C        0.42600    0.88100    0.00000    1.000
    C19      C        0.58100    0.76100    0.00000    1.000
    C20      C        0.32700    0.24200    0.00000    1.000
    Cd4      Cd       0.65950    0.50000    0.00000    1.000
    Cd5      Cd       0.83790    0.69410    0.00000    1.000
    Cd6      Cd       0.60330    0.30110    0.00000    1.000
    N19      N        0.74200    0.58000    0.00000    1.000
    N20      N        0.59000    0.42000    0.00000    1.000
    C21      C        0.76800    0.61800    0.00000    1.000
    C22      C        0.57400    0.38100    0.00000    1.000
    C23      C        0.41900    0.26100    0.00000    1.000
    C24      C        0.67300    0.74200    0.00000    1.000
    Cd7      Cd       0.86470    0.23700    0.50000    1.000
    Cd8      Cd       0.63190    0.05160    0.50000    1.000
    Cd9      Cd       0.06670    0.93970    0.50000    1.000
    N21      N        0.78200    0.15900    0.50000    1.000
    N22      N        0.94000    0.31700    0.50000    1.000
    C25      C        0.73300    0.12300    0.50000    1.000
    C26      C        0.05800    0.85800    0.50000    1.000
    C27      C        0.79100    0.99800    0.50000    1.000
    C28      C        0.88000    0.97800    0.50000    1.000
    Cd10     Cd       0.13530    0.73700    0.50000    1.000
    Cd11     Cd       0.36810    0.55160    0.50000    1.000
    Cd12     Cd       0.93330    0.43970    0.50000    1.000
    N23      N        0.21800    0.65900    0.50000    1.000
    N24      N        0.06000    0.81700    0.50000    1.000
    C29      C        0.26700    0.62300    0.50000    1.000
    C30      C        0.94200    0.35800    0.50000    1.000
    C31      C        0.20900    0.49800    0.50000    1.000
    C32      C        0.12000    0.47800    0.50000    1.000
