# CIF file generated by openbabel 3.1.0, see https://openbabel.org
data_I
_chemical_name_common 'image0'
_cell_length_a 11.472
_cell_length_b 19.94
_cell_length_c 12.0025
_cell_angle_alpha 90
_cell_angle_beta 101.475
_cell_angle_gamma 90
_space_group_name_H-M_alt 'P 1'
_space_group_name_Hall 'P 1'
loop_
    _symmetry_equiv_pos_as_xyz
    x,y,z
loop_
    _atom_site_label
    _atom_site_type_symbol
    _atom_site_fract_x
    _atom_site_fract_y
    _atom_site_fract_z
    _atom_site_occupancy
    Zn1      Zn       0.49513    0.08161    0.08149    1.000
    O1       O        0.45880    0.40669    0.91853    1.000
    H1       H        0.47280    0.37740    0.87680    1.000
    O2       O        0.45846    0.43014    0.41150    1.000
    O3       O        0.49499    0.17937    0.09589    1.000
    O4       O        0.46950    0.19355    0.27137    1.000
    O5       O        0.47863    0.51335    0.29430    1.000
    N1       N        0.68513    0.08248    0.08052    1.000
    N2       N        0.30447    0.07586    0.07875    1.000
    C1       C        0.47200    0.28910    0.15610    1.000
    C2       C        0.46805    0.45223    0.31620    1.000
    C3       C        0.05980    0.08119    0.08160    1.000
    C4       C        0.47040    0.33465    0.24405    1.000
    H2       H        0.47250    0.31930    0.31760    1.000
    C5       C        0.46690    0.31305    0.04630    1.000
    H3       H        0.46690    0.28300    0.98700    1.000
    C6       C        0.14420    0.06613    0.17730    1.000
    H4       H        0.12070    0.05780    0.24570    1.000
    C7       C        0.10360    0.09314    0.98350    1.000
    H5       H        0.05130    0.10270    0.91570    1.000
    C8       C        0.47910    0.21475    0.17820    1.000
    C9       C        0.46180    0.38109    0.02480    1.000
    C10      C        0.46550    0.40303    0.22148    1.000
    C11      C        0.93140    0.08321    0.08200    1.000
    C12      C        0.46220    0.42644    0.11240    1.000
    H6       H        0.46020    0.47230    0.09790    1.000
    C13      C        0.76630    0.06969    0.17450    1.000
    H7       H        0.73920    0.05980    0.24070    1.000
    C14      C        0.72820    0.09655    0.98740    1.000
    H8       H        0.67430    0.10640    0.92070    1.000
    C15      C        0.88670    0.07011    0.18000    1.000
    H9       H        0.93850    0.06170    0.24860    1.000
    C16      C        0.26280    0.06328    0.17240    1.000
    H10      H        0.31690    0.05190    0.23820    1.000
    C17      C        0.84690    0.09725    0.98450    1.000
    H11      H        0.87120    0.10720    0.91700    1.000
    C18      C        0.22330    0.09086    0.98640    1.000
    H12      H        0.24970    0.10040    0.91970    1.000
    Zn2      Zn       0.50487    0.58161    0.41851    1.000
    O6       O        0.54120    0.90669    0.58147    1.000
    H13      H        0.52720    0.87740    0.62320    1.000
    O7       O        0.54154    0.93014    0.08850    1.000
    O8       O        0.50501    0.67937    0.40411    1.000
    O9       O        0.53050    0.69355    0.22863    1.000
    O10      O        0.52137    0.01335    0.20570    1.000
    N3       N        0.31487    0.58248    0.41948    1.000
    N4       N        0.69553    0.57586    0.42125    1.000
    C19      C        0.52800    0.78910    0.34390    1.000
    C20      C        0.53195    0.95223    0.18380    1.000
    C21      C        0.94020    0.58119    0.41840    1.000
    C22      C        0.52960    0.83465    0.25595    1.000
    H14      H        0.52750    0.81930    0.18240    1.000
    C23      C        0.53310    0.81305    0.45370    1.000
    H15      H        0.53310    0.78300    0.51300    1.000
    C24      C        0.85580    0.56613    0.32270    1.000
    H16      H        0.87930    0.55780    0.25430    1.000
    C25      C        0.89640    0.59314    0.51650    1.000
    H17      H        0.94870    0.60270    0.58430    1.000
    C26      C        0.52090    0.71475    0.32180    1.000
    C27      C        0.53820    0.88109    0.47520    1.000
    C28      C        0.53450    0.90303    0.27852    1.000
    C29      C        0.06860    0.58321    0.41800    1.000
    C30      C        0.53780    0.92644    0.38760    1.000
    H18      H        0.53980    0.97230    0.40210    1.000
    C31      C        0.23370    0.56969    0.32550    1.000
    H19      H        0.26080    0.55980    0.25930    1.000
    C32      C        0.27180    0.59655    0.51260    1.000
    H20      H        0.32570    0.60640    0.57930    1.000
    C33      C        0.11330    0.57011    0.32000    1.000
    H21      H        0.06150    0.56170    0.25140    1.000
    C34      C        0.73720    0.56328    0.32760    1.000
    H22      H        0.68310    0.55190    0.26180    1.000
    C35      C        0.15310    0.59725    0.51550    1.000
    H23      H        0.12880    0.60720    0.58300    1.000
    C36      C        0.77670    0.59086    0.51360    1.000
    H24      H        0.75030    0.60040    0.58030    1.000
    Zn3      Zn       0.50487    0.91839    0.91851    1.000
    O11      O        0.54120    0.59331    0.08147    1.000
    H25      H        0.52720    0.62260    0.12320    1.000
    O12      O        0.54154    0.56986    0.58850    1.000
    O13      O        0.50501    0.82063    0.90411    1.000
    O14      O        0.53050    0.80645    0.72863    1.000
    O15      O        0.52137    0.48665    0.70570    1.000
    N5       N        0.31487    0.91752    0.91948    1.000
    N6       N        0.69553    0.92414    0.92125    1.000
    C37      C        0.52800    0.71090    0.84390    1.000
    C38      C        0.53195    0.54777    0.68380    1.000
    C39      C        0.94020    0.91881    0.91840    1.000
    C40      C        0.52960    0.66535    0.75595    1.000
    H26      H        0.52750    0.68070    0.68240    1.000
    C41      C        0.53310    0.68695    0.95370    1.000
    H27      H        0.53310    0.71700    0.01300    1.000
    C42      C        0.85580    0.93387    0.82270    1.000
    H28      H        0.87930    0.94220    0.75430    1.000
    C43      C        0.89640    0.90686    0.01650    1.000
    H29      H        0.94870    0.89730    0.08430    1.000
    C44      C        0.52090    0.78525    0.82180    1.000
    C45      C        0.53820    0.61891    0.97520    1.000
    C46      C        0.53450    0.59697    0.77852    1.000
    C47      C        0.06860    0.91679    0.91800    1.000
    C48      C        0.53780    0.57356    0.88760    1.000
    H30      H        0.53980    0.52770    0.90210    1.000
    C49      C        0.23370    0.93031    0.82550    1.000
    H31      H        0.26080    0.94020    0.75930    1.000
    C50      C        0.27180    0.90345    0.01260    1.000
    H32      H        0.32570    0.89360    0.07930    1.000
    C51      C        0.11330    0.92989    0.82000    1.000
    H33      H        0.06150    0.93830    0.75140    1.000
    C52      C        0.73720    0.93672    0.82760    1.000
    H34      H        0.68310    0.94810    0.76180    1.000
    C53      C        0.15310    0.90275    0.01550    1.000
    H35      H        0.12880    0.89280    0.08300    1.000
    C54      C        0.77670    0.90914    0.01360    1.000
    H36      H        0.75030    0.89960    0.08030    1.000
    Zn4      Zn       0.49513    0.41839    0.58149    1.000
    O16      O        0.45880    0.09331    0.41853    1.000
    H37      H        0.47280    0.12260    0.37680    1.000
    O17      O        0.45846    0.06986    0.91150    1.000
    O18      O        0.49499    0.32063    0.59589    1.000
    O19      O        0.46950    0.30645    0.77137    1.000
    O20      O        0.47863    0.98665    0.79430    1.000
    N7       N        0.68513    0.41752    0.58052    1.000
    N8       N        0.30447    0.42414    0.57875    1.000
    C55      C        0.47200    0.21090    0.65610    1.000
    C56      C        0.46805    0.04777    0.81620    1.000
    C57      C        0.05980    0.41881    0.58160    1.000
    C58      C        0.47040    0.16535    0.74405    1.000
    H38      H        0.47250    0.18070    0.81760    1.000
    C59      C        0.46690    0.18695    0.54630    1.000
    H39      H        0.46690    0.21700    0.48700    1.000
    C60      C        0.14420    0.43387    0.67730    1.000
    H40      H        0.12070    0.44220    0.74570    1.000
    C61      C        0.10360    0.40686    0.48350    1.000
    H41      H        0.05130    0.39730    0.41570    1.000
    C62      C        0.47910    0.28525    0.67820    1.000
    C63      C        0.46180    0.11891    0.52480    1.000
    C64      C        0.46550    0.09697    0.72148    1.000
    C65      C        0.93140    0.41679    0.58200    1.000
    C66      C        0.46220    0.07356    0.61240    1.000
    H42      H        0.46020    0.02770    0.59790    1.000
    C67      C        0.76630    0.43031    0.67450    1.000
    H43      H        0.73920    0.44020    0.74070    1.000
    C68      C        0.72820    0.40345    0.48740    1.000
    H44      H        0.67430    0.39360    0.42070    1.000
    C69      C        0.88670    0.42989    0.68000    1.000
    H45      H        0.93850    0.43830    0.74860    1.000
    C70      C        0.26280    0.43672    0.67240    1.000
    H46      H        0.31690    0.44810    0.73820    1.000
    C71      C        0.84690    0.40275    0.48450    1.000
    H47      H        0.87120    0.39280    0.41700    1.000
    C72      C        0.22330    0.40914    0.48640    1.000
    H48      H        0.24970    0.39960    0.41970    1.000
