# CIF file generated by openbabel 3.1.0, see https://openbabel.org
data_I
_chemical_name_common 'COYTEQ_clean'
_cell_length_a 12.12
_cell_length_b 12.3605
_cell_length_c 12.8067
_cell_angle_alpha 90
_cell_angle_beta 90
_cell_angle_gamma 114.974
_space_group_name_H-M_alt 'P 1'
_space_group_name_Hall 'P 1'
loop_
    _symmetry_equiv_pos_as_xyz
    x,y,z
loop_
    _atom_site_label
    _atom_site_type_symbol
    _atom_site_fract_x
    _atom_site_fract_y
    _atom_site_fract_z
    _atom_site_occupancy
    La1      La       0.54822    0.85370    0.45520    1.000
    La2      La       0.45178    0.64630    0.95520    1.000
    La3      La       0.45178    0.14630    0.54480    1.000
    La4      La       0.54822    0.35370    0.04480    1.000
    H1       H        0.63370    0.66780    0.28420    1.000
    H2       H        0.20270    0.57620    0.16610    1.000
    H3       H        0.07150    0.75230    0.35310    1.000
    H4       H        0.02210    0.45330    0.13160    1.000
    H5       H        0.90540    0.66980    0.28360    1.000
    H6       H        0.36630    0.83220    0.78420    1.000
    H7       H        0.79730    0.92380    0.66610    1.000
    H8       H        0.92850    0.74770    0.85310    1.000
    H9       H        0.97790    0.04670    0.63160    1.000
    H10      H        0.09460    0.83020    0.78360    1.000
    H11      H        0.36630    0.33220    0.71580    1.000
    H12      H        0.79730    0.42380    0.83390    1.000
    H13      H        0.92850    0.24770    0.64690    1.000
    H14      H        0.97790    0.54670    0.86840    1.000
    H15      H        0.09460    0.33020    0.71640    1.000
    H16      H        0.63370    0.16780    0.21580    1.000
    H17      H        0.20270    0.07620    0.33390    1.000
    H18      H        0.07150    0.25230    0.14690    1.000
    H19      H        0.02210    0.95330    0.36840    1.000
    H20      H        0.90540    0.16980    0.21640    1.000
    C1       C        0.43630    0.67810    0.23540    1.000
    C2       C        0.27950    0.89320    0.44800    1.000
    C3       C        0.80800    0.30490    0.04600    1.000
    C4       C        0.66860    0.55450    0.23340    1.000
    C5       C        0.32500    0.69210    0.26740    1.000
    C6       C        0.21190    0.62950    0.22020    1.000
    C7       C        0.11380    0.64850    0.25550    1.000
    C8       C        0.13490    0.73470    0.33030    1.000
    C9       C        0.25000    0.79530    0.37180    1.000
    C10      C        0.84340    0.41020    0.12050    1.000
    C11      C        0.96090    0.47540    0.15230    1.000
    C12      C        0.98850    0.57490    0.21590    1.000
    C13      C        0.89180    0.60310    0.24280    1.000
    C14      C        0.77740    0.53180    0.20860    1.000
    C15      C        0.56370    0.82190    0.73540    1.000
    C16      C        0.72050    0.60680    0.94800    1.000
    C17      C        0.19200    0.19510    0.54600    1.000
    C18      C        0.33140    0.94550    0.73340    1.000
    C19      C        0.67500    0.80790    0.76740    1.000
    C20      C        0.78810    0.87050    0.72020    1.000
    C21      C        0.88620    0.85150    0.75550    1.000
    C22      C        0.86510    0.76530    0.83030    1.000
    C23      C        0.75000    0.70470    0.87180    1.000
    C24      C        0.15660    0.08980    0.62050    1.000
    C25      C        0.03910    0.02460    0.65230    1.000
    C26      C        0.01150    0.92510    0.71590    1.000
    C27      C        0.10820    0.89690    0.74280    1.000
    C28      C        0.22260    0.96820    0.70860    1.000
    C29      C        0.56370    0.32190    0.76460    1.000
    C30      C        0.72050    0.10680    0.55200    1.000
    C31      C        0.19200    0.69510    0.95400    1.000
    C32      C        0.33140    0.44550    0.76660    1.000
    C33      C        0.67500    0.30790    0.73260    1.000
    C34      C        0.78810    0.37050    0.77980    1.000
    C35      C        0.88620    0.35150    0.74450    1.000
    C36      C        0.86510    0.26530    0.66970    1.000
    C37      C        0.75000    0.20470    0.62820    1.000
    C38      C        0.15660    0.58980    0.87950    1.000
    C39      C        0.03910    0.52460    0.84770    1.000
    C40      C        0.01150    0.42510    0.78410    1.000
    C41      C        0.10820    0.39690    0.75720    1.000
    C42      C        0.22260    0.46820    0.79140    1.000
    C43      C        0.43630    0.17810    0.26460    1.000
    C44      C        0.27950    0.39320    0.05200    1.000
    C45      C        0.80800    0.80490    0.45400    1.000
    C46      C        0.66860    0.05450    0.26660    1.000
    C47      C        0.32500    0.19210    0.23260    1.000
    C48      C        0.21190    0.12950    0.27980    1.000
    C49      C        0.11380    0.14850    0.24450    1.000
    C50      C        0.13490    0.23470    0.16970    1.000
    C51      C        0.25000    0.29530    0.12820    1.000
    C52      C        0.84340    0.91020    0.37950    1.000
    C53      C        0.96090    0.97540    0.34770    1.000
    C54      C        0.98850    0.07490    0.28410    1.000
    C55      C        0.89180    0.10310    0.25720    1.000
    C56      C        0.77740    0.03180    0.29140    1.000
    N1       N        0.34290    0.77000    0.34390    1.000
    N2       N        0.75260    0.43710    0.15010    1.000
    N3       N        0.65710    0.73000    0.84390    1.000
    N4       N        0.24740    0.06290    0.65010    1.000
    N5       N        0.65710    0.23000    0.65610    1.000
    N6       N        0.24740    0.56290    0.84990    1.000
    N7       N        0.34290    0.27000    0.15610    1.000
    N8       N        0.75260    0.93710    0.34990    1.000
    O1       O        0.52100    0.71100    0.30300    1.000
    O2       O        0.44000    0.63560    0.15050    1.000
    O3       O        0.38190    0.92470    0.49770    1.000
    O4       O        0.21370    0.94560    0.45750    1.000
    O5       O        0.69890    0.26670    0.01060    1.000
    O6       O        0.88350    0.26780    0.02650    1.000
    O7       O        0.56680    0.47990    0.21470    1.000
    O8       O        0.69620    0.65920    0.27330    1.000
    O9       O        0.47900    0.78900    0.80300    1.000
    O10      O        0.56000    0.86440    0.65050    1.000
    O11      O        0.61810    0.57530    0.99770    1.000
    O12      O        0.78630    0.55440    0.95750    1.000
    O13      O        0.30110    0.23330    0.51060    1.000
    O14      O        0.11650    0.23220    0.52650    1.000
    O15      O        0.43320    0.02010    0.71470    1.000
    O16      O        0.30380    0.84080    0.77330    1.000
    O17      O        0.47900    0.28900    0.69700    1.000
    O18      O        0.56000    0.36440    0.84950    1.000
    O19      O        0.61810    0.07530    0.50230    1.000
    O20      O        0.78630    0.05440    0.54250    1.000
    O21      O        0.30110    0.73330    0.98940    1.000
    O22      O        0.11650    0.73220    0.97350    1.000
    O23      O        0.43320    0.52010    0.78530    1.000
    O24      O        0.30380    0.34080    0.72670    1.000
    O25      O        0.52100    0.21100    0.19700    1.000
    O26      O        0.44000    0.13560    0.34950    1.000
    O27      O        0.38190    0.42470    0.00230    1.000
    O28      O        0.21370    0.44560    0.04250    1.000
    O29      O        0.69890    0.76670    0.48940    1.000
    O30      O        0.88350    0.76780    0.47350    1.000
    O31      O        0.56680    0.97990    0.28530    1.000
    O32      O        0.69620    0.15920    0.22670    1.000
