# CIF file generated by openbabel 3.1.0, see https://openbabel.org
data_I
_chemical_name_common 'image0'
_cell_length_a 24.9497
_cell_length_b 9.4852
_cell_length_c 21.7319
_cell_angle_alpha 90
_cell_angle_beta 102.261
_cell_angle_gamma 90
_space_group_name_H-M_alt 'P 1'
_space_group_name_Hall 'P 1'
loop_
    _symmetry_equiv_pos_as_xyz
    x,y,z
loop_
    _atom_site_label
    _atom_site_type_symbol
    _atom_site_fract_x
    _atom_site_fract_y
    _atom_site_fract_z
    _atom_site_occupancy
    Cu1      Cu       0.79709    0.57882    0.47043    1.000
    N1       N        0.87464    0.64810    0.48242    1.000
    N2       N        0.22263    0.99020    0.46251    1.000
    C1       C        0.88893    0.73520    0.44069    1.000
    H1       H        0.86110    0.76920    0.40720    1.000
    C2       C        0.94214    0.77880    0.44360    1.000
    H2       H        0.95020    0.84130    0.41270    1.000
    C3       C        0.98369    0.73130    0.49167    1.000
    C4       C        0.96882    0.64010    0.53490    1.000
    H3       H        0.99600    0.60360    0.56850    1.000
    C5       C        0.91446    0.60210    0.52926    1.000
    H4       H        0.90510    0.54080    0.55990    1.000
    C6       C        0.04143    0.76960    0.49662    1.000
    H5       H        0.06820    0.72570    0.52850    1.000
    C7       C        0.05840    0.86210    0.45910    1.000
    H6       H        0.03100    0.90730    0.42830    1.000
    C8       C        0.11561    0.90080    0.46083    1.000
    C9       C        0.12705    0.99680    0.41680    1.000
    H7       H        0.09810    0.03520    0.38580    1.000
    C10      C        0.18071    0.03620    0.41836    1.000
    H8       H        0.18800    0.09830    0.38680    1.000
    C11      C        0.21186    0.89690    0.50469    1.000
    H9       H        0.24160    0.86260    0.53600    1.000
    C12      C        0.15999    0.84840    0.50487    1.000
    H10      H        0.15450    0.77980    0.53480    1.000
    Cu2      Cu       0.29709    0.07882    0.47043    1.000
    N3       N        0.37464    0.14810    0.48242    1.000
    N4       N        0.72263    0.49020    0.46251    1.000
    C13      C        0.38893    0.23520    0.44069    1.000
    H11      H        0.36110    0.26920    0.40720    1.000
    C14      C        0.44214    0.27880    0.44360    1.000
    H12      H        0.45020    0.34130    0.41270    1.000
    C15      C        0.48369    0.23130    0.49167    1.000
    C16      C        0.46882    0.14010    0.53490    1.000
    H13      H        0.49600    0.10360    0.56850    1.000
    C17      C        0.41446    0.10210    0.52926    1.000
    H14      H        0.40510    0.04080    0.55990    1.000
    C18      C        0.54143    0.26960    0.49662    1.000
    H15      H        0.56820    0.22570    0.52850    1.000
    C19      C        0.55840    0.36210    0.45910    1.000
    H16      H        0.53100    0.40730    0.42830    1.000
    C20      C        0.61561    0.40080    0.46083    1.000
    C21      C        0.62705    0.49680    0.41680    1.000
    H17      H        0.59810    0.53520    0.38580    1.000
    C22      C        0.68071    0.53620    0.41836    1.000
    H18      H        0.68800    0.59830    0.38680    1.000
    C23      C        0.71186    0.39690    0.50469    1.000
    H19      H        0.74160    0.36260    0.53600    1.000
    C24      C        0.65999    0.34840    0.50487    1.000
    H20      H        0.65450    0.27980    0.53480    1.000
    O1       O        0.23293    0.79800    0.06622    1.000
    O2       O        0.30783    0.92350    0.06196    1.000
    O3       O        0.29220    0.03670    0.38119    1.000
    O4       O        0.36502    0.89230    0.39499    1.000
    O5       O        0.17629    0.80520    0.27444    1.000
    O6       O        0.24415    0.74950    0.35020    1.000
    N5       N        0.22561    0.79920    0.29810    1.000
    C25      C        0.27404    0.86650    0.09078    1.000
    C26      C        0.28696    0.88800    0.16120    1.000
    C27      C        0.33448    0.95690    0.19135    1.000
    H21      H        0.35890    0.99330    0.16720    1.000
    C28      C        0.34678    0.97330    0.25666    1.000
    H22      H        0.38000    0.01810    0.27660    1.000
    C29      C        0.31100    0.92500    0.29253    1.000
    C30      C        0.26425    0.85460    0.26154    1.000
    C31      C        0.25211    0.83390    0.19698    1.000
    H23      H        0.22020    0.78300    0.17750    1.000
    C32      C        0.32467    0.95020    0.36326    1.000
    O7       O        0.73293    0.29800    0.06622    1.000
    O8       O        0.80783    0.42350    0.06196    1.000
    O9       O        0.79220    0.53670    0.38119    1.000
    O10      O        0.86502    0.39230    0.39499    1.000
    O11      O        0.67629    0.30520    0.27444    1.000
    O12      O        0.74415    0.24950    0.35020    1.000
    N6       N        0.72561    0.29920    0.29810    1.000
    C33      C        0.77404    0.36650    0.09078    1.000
    C34      C        0.78696    0.38800    0.16120    1.000
    C35      C        0.83448    0.45690    0.19135    1.000
    H24      H        0.85890    0.49330    0.16720    1.000
    C36      C        0.84678    0.47330    0.25666    1.000
    H25      H        0.88000    0.51810    0.27660    1.000
    C37      C        0.81100    0.42500    0.29253    1.000
    C38      C        0.76425    0.35460    0.26154    1.000
    C39      C        0.75211    0.33390    0.19698    1.000
    H26      H        0.72020    0.28300    0.17750    1.000
    C40      C        0.82467    0.45020    0.36326    1.000
    O13      O        0.23293    0.20200    0.56622    1.000
    O14      O        0.30783    0.07650    0.56196    1.000
    O15      O        0.29220    0.96330    0.88119    1.000
    O16      O        0.36502    0.10770    0.89499    1.000
    O17      O        0.17629    0.19480    0.77444    1.000
    O18      O        0.24415    0.25050    0.85020    1.000
    N7       N        0.22561    0.20080    0.79810    1.000
    C41      C        0.27404    0.13350    0.59078    1.000
    C42      C        0.28696    0.11200    0.66120    1.000
    C43      C        0.33448    0.04310    0.69135    1.000
    H27      H        0.35890    0.00670    0.66720    1.000
    C44      C        0.34678    0.02670    0.75666    1.000
    H28      H        0.38000    0.98190    0.77660    1.000
    C45      C        0.31100    0.07500    0.79253    1.000
    C46      C        0.26425    0.14540    0.76154    1.000
    C47      C        0.25211    0.16610    0.69698    1.000
    H29      H        0.22020    0.21700    0.67750    1.000
    C48      C        0.32467    0.04980    0.86326    1.000
    O19      O        0.73293    0.70200    0.56622    1.000
    O20      O        0.80783    0.57650    0.56196    1.000
    O21      O        0.79220    0.46330    0.88119    1.000
    O22      O        0.86502    0.60770    0.89499    1.000
    O23      O        0.67629    0.69480    0.77444    1.000
    O24      O        0.74415    0.75050    0.85020    1.000
    N8       N        0.72561    0.70080    0.79810    1.000
    C49      C        0.77404    0.63350    0.59078    1.000
    C50      C        0.78696    0.61200    0.66120    1.000
    C51      C        0.83448    0.54310    0.69135    1.000
    H30      H        0.85890    0.50670    0.66720    1.000
    C52      C        0.84678    0.52670    0.75666    1.000
    H31      H        0.88000    0.48190    0.77660    1.000
    C53      C        0.81100    0.57500    0.79253    1.000
    C54      C        0.76425    0.64540    0.76154    1.000
    C55      C        0.75211    0.66610    0.69698    1.000
    H32      H        0.72020    0.71700    0.67750    1.000
    C56      C        0.82467    0.54980    0.86326    1.000
    Cu3      Cu       0.79709    0.42118    0.97043    1.000
    N9       N        0.87464    0.35190    0.98242    1.000
    N10      N        0.22263    0.00980    0.96251    1.000
    C57      C        0.88893    0.26480    0.94069    1.000
    H33      H        0.86110    0.23080    0.90720    1.000
    C58      C        0.94214    0.22120    0.94360    1.000
    H34      H        0.95020    0.15870    0.91270    1.000
    C59      C        0.98369    0.26870    0.99167    1.000
    C60      C        0.96882    0.35990    0.03490    1.000
    H35      H        0.99600    0.39640    0.06850    1.000
    C61      C        0.91446    0.39790    0.02926    1.000
    H36      H        0.90510    0.45920    0.05990    1.000
    C62      C        0.04143    0.23040    0.99662    1.000
    H37      H        0.06820    0.27430    0.02850    1.000
    C63      C        0.05840    0.13790    0.95910    1.000
    H38      H        0.03100    0.09270    0.92830    1.000
    C64      C        0.11561    0.09920    0.96083    1.000
    C65      C        0.12705    0.00320    0.91680    1.000
    H39      H        0.09810    0.96480    0.88580    1.000
    C66      C        0.18071    0.96380    0.91836    1.000
    H40      H        0.18800    0.90170    0.88680    1.000
    C67      C        0.21186    0.10310    0.00469    1.000
    H41      H        0.24160    0.13740    0.03600    1.000
    C68      C        0.15999    0.15160    0.00487    1.000
    H42      H        0.15450    0.22020    0.03480    1.000
    Cu4      Cu       0.29709    0.92118    0.97043    1.000
    N11      N        0.37464    0.85190    0.98242    1.000
    N12      N        0.72263    0.50980    0.96251    1.000
    C69      C        0.38893    0.76480    0.94069    1.000
    H43      H        0.36110    0.73080    0.90720    1.000
    C70      C        0.44214    0.72120    0.94360    1.000
    H44      H        0.45020    0.65870    0.91270    1.000
    C71      C        0.48369    0.76870    0.99167    1.000
    C72      C        0.46882    0.85990    0.03490    1.000
    H45      H        0.49600    0.89640    0.06850    1.000
    C73      C        0.41446    0.89790    0.02926    1.000
    H46      H        0.40510    0.95920    0.05990    1.000
    C74      C        0.54143    0.73040    0.99662    1.000
    H47      H        0.56820    0.77430    0.02850    1.000
    C75      C        0.55840    0.63790    0.95910    1.000
    H48      H        0.53100    0.59270    0.92830    1.000
    C76      C        0.61561    0.59920    0.96083    1.000
    C77      C        0.62705    0.50320    0.91680    1.000
    H49      H        0.59810    0.46480    0.88580    1.000
    C78      C        0.68071    0.46380    0.91836    1.000
    H50      H        0.68800    0.40170    0.88680    1.000
    C79      C        0.71186    0.60310    0.00469    1.000
    H51      H        0.74160    0.63740    0.03600    1.000
    C80      C        0.65999    0.65160    0.00487    1.000
    H52      H        0.65450    0.72020    0.03480    1.000
    O25      O        0.76707    0.79800    0.43378    1.000
    O26      O        0.69217    0.92350    0.43804    1.000
    O27      O        0.70780    0.03670    0.11881    1.000
    O28      O        0.63498    0.89230    0.10501    1.000
    O29      O        0.82371    0.80520    0.22556    1.000
    O30      O        0.75585    0.74950    0.14980    1.000
    N13      N        0.77439    0.79920    0.20190    1.000
    C81      C        0.72596    0.86650    0.40922    1.000
    C82      C        0.71304    0.88800    0.33880    1.000
    C83      C        0.66552    0.95690    0.30865    1.000
    H53      H        0.64110    0.99330    0.33280    1.000
    C84      C        0.65322    0.97330    0.24334    1.000
    H54      H        0.62000    0.01810    0.22340    1.000
    C85      C        0.68900    0.92500    0.20747    1.000
    C86      C        0.73575    0.85460    0.23846    1.000
    C87      C        0.74789    0.83390    0.30302    1.000
    H55      H        0.77980    0.78300    0.32250    1.000
    C88      C        0.67533    0.95020    0.13674    1.000
    O31      O        0.26707    0.29800    0.43378    1.000
    O32      O        0.19217    0.42350    0.43804    1.000
    O33      O        0.20780    0.53670    0.11881    1.000
    O34      O        0.13498    0.39230    0.10501    1.000
    O35      O        0.32371    0.30520    0.22556    1.000
    O36      O        0.25585    0.24950    0.14980    1.000
    N14      N        0.27439    0.29920    0.20190    1.000
    C89      C        0.22596    0.36650    0.40922    1.000
    C90      C        0.21304    0.38800    0.33880    1.000
    C91      C        0.16552    0.45690    0.30865    1.000
    H56      H        0.14110    0.49330    0.33280    1.000
    C92      C        0.15322    0.47330    0.24334    1.000
    H57      H        0.12000    0.51810    0.22340    1.000
    C93      C        0.18900    0.42500    0.20747    1.000
    C94      C        0.23575    0.35460    0.23846    1.000
    C95      C        0.24789    0.33390    0.30302    1.000
    H58      H        0.27980    0.28300    0.32250    1.000
    C96      C        0.17533    0.45020    0.13674    1.000
    Cu5      Cu       0.20291    0.57882    0.02957    1.000
    N15      N        0.12536    0.64810    0.01758    1.000
    N16      N        0.77737    0.99020    0.03749    1.000
    C97      C        0.11107    0.73520    0.05931    1.000
    H59      H        0.13890    0.76920    0.09280    1.000
    C98      C        0.05786    0.77880    0.05640    1.000
    H60      H        0.04980    0.84130    0.08730    1.000
    C99      C        0.01631    0.73130    0.00833    1.000
    C100     C        0.03118    0.64010    0.96510    1.000
    H61      H        0.00400    0.60360    0.93150    1.000
    C101     C        0.08554    0.60210    0.97074    1.000
    H62      H        0.09490    0.54080    0.94010    1.000
    C102     C        0.95857    0.76960    0.00338    1.000
    H63      H        0.93180    0.72570    0.97150    1.000
    C103     C        0.94160    0.86210    0.04090    1.000
    H64      H        0.96900    0.90730    0.07170    1.000
    C104     C        0.88439    0.90080    0.03917    1.000
    C105     C        0.87295    0.99680    0.08320    1.000
    H65      H        0.90190    0.03520    0.11420    1.000
    C106     C        0.81929    0.03620    0.08164    1.000
    H66      H        0.81200    0.09830    0.11320    1.000
    C107     C        0.78814    0.89690    0.99531    1.000
    H67      H        0.75840    0.86260    0.96400    1.000
    C108     C        0.84001    0.84840    0.99513    1.000
    H68      H        0.84550    0.77980    0.96520    1.000
    Cu6      Cu       0.70291    0.07882    0.02957    1.000
    N17      N        0.62536    0.14810    0.01758    1.000
    N18      N        0.27737    0.49020    0.03749    1.000
    C109     C        0.61107    0.23520    0.05931    1.000
    H69      H        0.63890    0.26920    0.09280    1.000
    C110     C        0.55786    0.27880    0.05640    1.000
    H70      H        0.54980    0.34130    0.08730    1.000
    C111     C        0.51631    0.23130    0.00833    1.000
    C112     C        0.53118    0.14010    0.96510    1.000
    H71      H        0.50400    0.10360    0.93150    1.000
    C113     C        0.58554    0.10210    0.97074    1.000
    H72      H        0.59490    0.04080    0.94010    1.000
    C114     C        0.45857    0.26960    0.00338    1.000
    H73      H        0.43180    0.22570    0.97150    1.000
    C115     C        0.44160    0.36210    0.04090    1.000
    H74      H        0.46900    0.40730    0.07170    1.000
    C116     C        0.38439    0.40080    0.03917    1.000
    C117     C        0.37295    0.49680    0.08320    1.000
    H75      H        0.40190    0.53520    0.11420    1.000
    C118     C        0.31929    0.53620    0.08164    1.000
    H76      H        0.31200    0.59830    0.11320    1.000
    C119     C        0.28814    0.39690    0.99531    1.000
    H77      H        0.25840    0.36260    0.96400    1.000
    C120     C        0.34001    0.34840    0.99513    1.000
    H78      H        0.34550    0.27980    0.96520    1.000
    Cu7      Cu       0.20291    0.42118    0.52957    1.000
    N19      N        0.12536    0.35190    0.51758    1.000
    N20      N        0.77737    0.00980    0.53749    1.000
    C121     C        0.11107    0.26480    0.55931    1.000
    H79      H        0.13890    0.23080    0.59280    1.000
    C122     C        0.05786    0.22120    0.55640    1.000
    H80      H        0.04980    0.15870    0.58730    1.000
    C123     C        0.01631    0.26870    0.50833    1.000
    C124     C        0.03118    0.35990    0.46510    1.000
    H81      H        0.00400    0.39640    0.43150    1.000
    C125     C        0.08554    0.39790    0.47074    1.000
    H82      H        0.09490    0.45920    0.44010    1.000
    C126     C        0.95857    0.23040    0.50338    1.000
    H83      H        0.93180    0.27430    0.47150    1.000
    C127     C        0.94160    0.13790    0.54090    1.000
    H84      H        0.96900    0.09270    0.57170    1.000
    C128     C        0.88439    0.09920    0.53917    1.000
    C129     C        0.87295    0.00320    0.58320    1.000
    H85      H        0.90190    0.96480    0.61420    1.000
    C130     C        0.81929    0.96380    0.58164    1.000
    H86      H        0.81200    0.90170    0.61320    1.000
    C131     C        0.78814    0.10310    0.49531    1.000
    H87      H        0.75840    0.13740    0.46400    1.000
    C132     C        0.84001    0.15160    0.49513    1.000
    H88      H        0.84550    0.22020    0.46520    1.000
    Cu8      Cu       0.70291    0.92118    0.52957    1.000
    N21      N        0.62536    0.85190    0.51758    1.000
    N22      N        0.27737    0.50980    0.53749    1.000
    C133     C        0.61107    0.76480    0.55931    1.000
    H89      H        0.63890    0.73080    0.59280    1.000
    C134     C        0.55786    0.72120    0.55640    1.000
    H90      H        0.54980    0.65870    0.58730    1.000
    C135     C        0.51631    0.76870    0.50833    1.000
    C136     C        0.53118    0.85990    0.46510    1.000
    H91      H        0.50400    0.89640    0.43150    1.000
    C137     C        0.58554    0.89790    0.47074    1.000
    H92      H        0.59490    0.95920    0.44010    1.000
    C138     C        0.45857    0.73040    0.50338    1.000
    H93      H        0.43180    0.77430    0.47150    1.000
    C139     C        0.44160    0.63790    0.54090    1.000
    H94      H        0.46900    0.59270    0.57170    1.000
    C140     C        0.38439    0.59920    0.53917    1.000
    C141     C        0.37295    0.50320    0.58320    1.000
    H95      H        0.40190    0.46480    0.61420    1.000
    C142     C        0.31929    0.46380    0.58164    1.000
    H96      H        0.31200    0.40170    0.61320    1.000
    C143     C        0.28814    0.60310    0.49531    1.000
    H97      H        0.25840    0.63740    0.46400    1.000
    C144     C        0.34001    0.65160    0.49513    1.000
    H98      H        0.34550    0.72020    0.46520    1.000
    O37      O        0.76707    0.20200    0.93378    1.000
    O38      O        0.69217    0.07650    0.93804    1.000
    O39      O        0.70780    0.96330    0.61881    1.000
    O40      O        0.63498    0.10770    0.60501    1.000
    O41      O        0.82371    0.19480    0.72556    1.000
    O42      O        0.75585    0.25050    0.64980    1.000
    N23      N        0.77439    0.20080    0.70190    1.000
    C145     C        0.72596    0.13350    0.90922    1.000
    C146     C        0.71304    0.11200    0.83880    1.000
    C147     C        0.66552    0.04310    0.80865    1.000
    H99      H        0.64110    0.00670    0.83280    1.000
    C148     C        0.65322    0.02670    0.74334    1.000
    H100     H        0.62000    0.98190    0.72340    1.000
    C149     C        0.68900    0.07500    0.70747    1.000
    C150     C        0.73575    0.14540    0.73846    1.000
    C151     C        0.74789    0.16610    0.80302    1.000
    H101     H        0.77980    0.21700    0.82250    1.000
    C152     C        0.67533    0.04980    0.63674    1.000
    O43      O        0.26707    0.70200    0.93378    1.000
    O44      O        0.19217    0.57650    0.93804    1.000
    O45      O        0.20780    0.46330    0.61881    1.000
    O46      O        0.13498    0.60770    0.60501    1.000
    O47      O        0.32371    0.69480    0.72556    1.000
    O48      O        0.25585    0.75050    0.64980    1.000
    N24      N        0.27439    0.70080    0.70190    1.000
    C153     C        0.22596    0.63350    0.90922    1.000
    C154     C        0.21304    0.61200    0.83880    1.000
    C155     C        0.16552    0.54310    0.80865    1.000
    H102     H        0.14110    0.50670    0.83280    1.000
    C156     C        0.15322    0.52670    0.74334    1.000
    H103     H        0.12000    0.48190    0.72340    1.000
    C157     C        0.18900    0.57500    0.70747    1.000
    C158     C        0.23575    0.64540    0.73846    1.000
    C159     C        0.24789    0.66610    0.80302    1.000
    H104     H        0.27980    0.71700    0.82250    1.000
    C160     C        0.17533    0.54980    0.63674    1.000
