# CIF file generated by openbabel 3.1.0, see https://openbabel.org
data_I
_chemical_name_common 'image0'
_cell_length_a 10.6945
_cell_length_b 18.576
_cell_length_c 14.9208
_cell_angle_alpha 90
_cell_angle_beta 107.758
_cell_angle_gamma 90
_space_group_name_H-M_alt 'P 1'
_space_group_name_Hall 'P 1'
loop_
    _symmetry_equiv_pos_as_xyz
    x,y,z
loop_
    _atom_site_label
    _atom_site_type_symbol
    _atom_site_fract_x
    _atom_site_fract_y
    _atom_site_fract_z
    _atom_site_occupancy
    Cd1      Cd       0.67055    0.01133    0.67012    1.000
    O1       O        0.67870    0.00245    0.82530    1.000
    O2       O        0.66470    0.47467    0.01360    1.000
    O3       O        0.98060    0.01926    0.84500    1.000
    F1       F        0.03880    0.29147    0.09460    1.000
    C1       C        0.70460    0.94950    0.88110    1.000
    O4       O        0.85550    0.07884    0.71990    1.000
    C2       C        0.07410    0.27110    0.80530    1.000
    C3       C        0.61170    0.43130    0.94830    1.000
    F2       F        0.38500    0.79970    0.76000    1.000
    N1       N        0.91760    0.11650    0.01150    1.000
    O5       O        0.79550    0.94681    0.95760    1.000
    C4       C        0.56930    0.75560    0.87980    1.000
    C5       C        0.94940    0.07490    0.79420    1.000
    C6       C        0.64000    0.82420    0.90250    1.000
    H1       H        0.70790    0.82570    0.95900    1.000
    N2       N        0.44300    0.62010    0.84590    1.000
    C7       C        0.95070    0.23980    0.05370    1.000
    C8       C        0.03360    0.13990    0.82410    1.000
    H2       H        0.11510    0.13530    0.86940    1.000
    C9       C        0.61860    0.88460    0.85160    1.000
    H3       H        0.54850    0.88650    0.79650    1.000
    C10      C        0.99440    0.20480    0.78690    1.000
    H4       H        0.90940    0.20840    0.74600    1.000
    C11      C        0.66310    0.35630    0.95250    1.000
    H5       H        0.61440    0.32370    0.90810    1.000
    C12      C        0.99670    0.17010    0.05380    1.000
    H6       H        0.08490    0.16040    0.08400    1.000
    C13      C        0.77200    0.33210    0.01390    1.000
    H7       H        0.82040    0.36340    0.06020    1.000
    C14      C        0.62440    0.69350    0.92930    1.000
    C15      C        0.73990    0.20060    0.97070    1.000
    H8       H        0.65060    0.20830    0.94250    1.000
    C16      C        0.82050    0.25790    0.01260    1.000
    C17      C        0.20960    0.27270    0.82190    1.000
    H9       H        0.25560    0.22970    0.82620    1.000
    C18      C        0.44780    0.74570    0.81380    1.000
    C19      C        0.79120    0.13230    0.97040    1.000
    H10      H        0.73500    0.09560    0.94020    1.000
    N3       N        0.21660    0.40150    0.82540    1.000
    C20      C        0.27600    0.33730    0.83210    1.000
    H11      H        0.36660    0.33630    0.84430    1.000
    C21      C        0.55900    0.62790    0.91060    1.000
    H12      H        0.59820    0.58770    0.94490    1.000
    C22      C        0.38810    0.67840    0.79620    1.000
    H13      H        0.30840    0.67370    0.74890    1.000
    C23      C        0.01720    0.33850    0.80090    1.000
    O6       O        0.51750    0.44485    0.87600    1.000
    F3       F        0.88560    0.34230    0.78480    1.000
    C24      C        0.08660    0.40130    0.81040    1.000
    H14      H        0.04260    0.44490    0.80630    1.000
    F4       F        0.74310    0.69430    0.98030    1.000
    Cd2      Cd       0.32945    0.51133    0.82988    1.000
    O7       O        0.32130    0.50245    0.67470    1.000
    O8       O        0.33530    0.97467    0.48640    1.000
    O9       O        0.01940    0.51926    0.65500    1.000
    F5       F        0.96120    0.79147    0.40540    1.000
    C25      C        0.29540    0.44950    0.61890    1.000
    O10      O        0.14450    0.57884    0.78010    1.000
    C26      C        0.92590    0.77110    0.69470    1.000
    C27      C        0.38830    0.93130    0.55170    1.000
    F6       F        0.61500    0.29970    0.74000    1.000
    N4       N        0.08240    0.61650    0.48850    1.000
    O11      O        0.20450    0.44681    0.54240    1.000
    C28      C        0.43070    0.25560    0.62020    1.000
    C29      C        0.05060    0.57490    0.70580    1.000
    C30      C        0.36000    0.32420    0.59750    1.000
    H15      H        0.29210    0.32570    0.54100    1.000
    N5       N        0.55700    0.12010    0.65410    1.000
    C31      C        0.04930    0.73980    0.44630    1.000
    C32      C        0.96640    0.63990    0.67590    1.000
    H16      H        0.88490    0.63530    0.63060    1.000
    C33      C        0.38140    0.38460    0.64840    1.000
    H17      H        0.45150    0.38650    0.70350    1.000
    C34      C        0.00560    0.70480    0.71310    1.000
    H18      H        0.09060    0.70840    0.75400    1.000
    C35      C        0.33690    0.85630    0.54750    1.000
    H19      H        0.38560    0.82370    0.59190    1.000
    C36      C        0.00330    0.67010    0.44620    1.000
    H20      H        0.91510    0.66040    0.41600    1.000
    C37      C        0.22800    0.83210    0.48610    1.000
    H21      H        0.17960    0.86340    0.43980    1.000
    C38      C        0.37560    0.19350    0.57070    1.000
    C39      C        0.26010    0.70060    0.52930    1.000
    H22      H        0.34940    0.70830    0.55750    1.000
    C40      C        0.17950    0.75790    0.48740    1.000
    C41      C        0.79040    0.77270    0.67810    1.000
    H23      H        0.74440    0.72970    0.67380    1.000
    C42      C        0.55220    0.24570    0.68620    1.000
    C43      C        0.20880    0.63230    0.52960    1.000
    H24      H        0.26500    0.59560    0.55980    1.000
    N6       N        0.78340    0.90150    0.67460    1.000
    C44      C        0.72400    0.83730    0.66790    1.000
    H25      H        0.63340    0.83630    0.65570    1.000
    C45      C        0.44100    0.12790    0.58940    1.000
    H26      H        0.40180    0.08770    0.55510    1.000
    C46      C        0.61190    0.17840    0.70380    1.000
    H27      H        0.69160    0.17370    0.75110    1.000
    C47      C        0.98280    0.83850    0.69910    1.000
    O12      O        0.48250    0.94485    0.62400    1.000
    F7       F        0.11440    0.84230    0.71520    1.000
    C48      C        0.91340    0.90130    0.68960    1.000
    H28      H        0.95740    0.94490    0.69370    1.000
    F8       F        0.25690    0.19430    0.51970    1.000
    Cd3      Cd       0.32945    0.98867    0.32988    1.000
    O13      O        0.32130    0.99755    0.17470    1.000
    O14      O        0.33530    0.52533    0.98640    1.000
    O15      O        0.01940    0.98074    0.15500    1.000
    F9       F        0.96120    0.70853    0.90540    1.000
    C49      C        0.29540    0.05050    0.11890    1.000
    O16      O        0.14450    0.92116    0.28010    1.000
    C50      C        0.92590    0.72890    0.19470    1.000
    C51      C        0.38830    0.56870    0.05170    1.000
    F10      F        0.61500    0.20030    0.24000    1.000
    N7       N        0.08240    0.88350    0.98850    1.000
    O17      O        0.20450    0.05319    0.04240    1.000
    C52      C        0.43070    0.24440    0.12020    1.000
    C53      C        0.05060    0.92510    0.20580    1.000
    C54      C        0.36000    0.17580    0.09750    1.000
    H29      H        0.29210    0.17430    0.04100    1.000
    N8       N        0.55700    0.37990    0.15410    1.000
    C55      C        0.04930    0.76020    0.94630    1.000
    C56      C        0.96640    0.86010    0.17590    1.000
    H30      H        0.88490    0.86470    0.13060    1.000
    C57      C        0.38140    0.11540    0.14840    1.000
    H31      H        0.45150    0.11350    0.20350    1.000
    C58      C        0.00560    0.79520    0.21310    1.000
    H32      H        0.09060    0.79160    0.25400    1.000
    C59      C        0.33690    0.64370    0.04750    1.000
    H33      H        0.38560    0.67630    0.09190    1.000
    C60      C        0.00330    0.82990    0.94620    1.000
    H34      H        0.91510    0.83960    0.91600    1.000
    C61      C        0.22800    0.66790    0.98610    1.000
    H35      H        0.17960    0.63660    0.93980    1.000
    C62      C        0.37560    0.30650    0.07070    1.000
    C63      C        0.26010    0.79940    0.02930    1.000
    H36      H        0.34940    0.79170    0.05750    1.000
    C64      C        0.17950    0.74210    0.98740    1.000
    C65      C        0.79040    0.72730    0.17810    1.000
    H37      H        0.74440    0.77030    0.17380    1.000
    C66      C        0.55220    0.25430    0.18620    1.000
    C67      C        0.20880    0.86770    0.02960    1.000
    H38      H        0.26500    0.90440    0.05980    1.000
    N9       N        0.78340    0.59850    0.17460    1.000
    C68      C        0.72400    0.66270    0.16790    1.000
    H39      H        0.63340    0.66370    0.15570    1.000
    C69      C        0.44100    0.37210    0.08940    1.000
    H40      H        0.40180    0.41230    0.05510    1.000
    C70      C        0.61190    0.32160    0.20380    1.000
    H41      H        0.69160    0.32630    0.25110    1.000
    C71      C        0.98280    0.66150    0.19910    1.000
    O18      O        0.48250    0.55515    0.12400    1.000
    F11      F        0.11440    0.65770    0.21520    1.000
    C72      C        0.91340    0.59870    0.18960    1.000
    H42      H        0.95740    0.55510    0.19370    1.000
    F12      F        0.25690    0.30570    0.01970    1.000
    Cd4      Cd       0.67055    0.48867    0.17012    1.000
    O19      O        0.67870    0.49755    0.32530    1.000
    O20      O        0.66470    0.02533    0.51360    1.000
    O21      O        0.98060    0.48074    0.34500    1.000
    F13      F        0.03880    0.20853    0.59460    1.000
    C73      C        0.70460    0.55050    0.38110    1.000
    O22      O        0.85550    0.42116    0.21990    1.000
    C74      C        0.07410    0.22890    0.30530    1.000
    C75      C        0.61170    0.06870    0.44830    1.000
    F14      F        0.38500    0.70030    0.26000    1.000
    N10      N        0.91760    0.38350    0.51150    1.000
    O23      O        0.79550    0.55319    0.45760    1.000
    C76      C        0.56930    0.74440    0.37980    1.000
    C77      C        0.94940    0.42510    0.29420    1.000
    C78      C        0.64000    0.67580    0.40250    1.000
    H43      H        0.70790    0.67430    0.45900    1.000
    N11      N        0.44300    0.87990    0.34590    1.000
    C79      C        0.95070    0.26020    0.55370    1.000
    C80      C        0.03360    0.36010    0.32410    1.000
    H44      H        0.11510    0.36470    0.36940    1.000
    C81      C        0.61860    0.61540    0.35160    1.000
    H45      H        0.54850    0.61350    0.29650    1.000
    C82      C        0.99440    0.29520    0.28690    1.000
    H46      H        0.90940    0.29160    0.24600    1.000
    C83      C        0.66310    0.14370    0.45250    1.000
    H47      H        0.61440    0.17630    0.40810    1.000
    C84      C        0.99670    0.32990    0.55380    1.000
    H48      H        0.08490    0.33960    0.58400    1.000
    C85      C        0.77200    0.16790    0.51390    1.000
    H49      H        0.82040    0.13660    0.56020    1.000
    C86      C        0.62440    0.80650    0.42930    1.000
    C87      C        0.73990    0.29940    0.47070    1.000
    H50      H        0.65060    0.29170    0.44250    1.000
    C88      C        0.82050    0.24210    0.51260    1.000
    C89      C        0.20960    0.22730    0.32190    1.000
    H51      H        0.25560    0.27030    0.32620    1.000
    C90      C        0.44780    0.75430    0.31380    1.000
    C91      C        0.79120    0.36770    0.47040    1.000
    H52      H        0.73500    0.40440    0.44020    1.000
    N12      N        0.21660    0.09850    0.32540    1.000
    C92      C        0.27600    0.16270    0.33210    1.000
    H53      H        0.36660    0.16370    0.34430    1.000
    C93      C        0.55900    0.87210    0.41060    1.000
    H54      H        0.59820    0.91230    0.44490    1.000
    C94      C        0.38810    0.82160    0.29620    1.000
    H55      H        0.30840    0.82630    0.24890    1.000
    C95      C        0.01720    0.16150    0.30090    1.000
    O24      O        0.51750    0.05515    0.37600    1.000
    F15      F        0.88560    0.15770    0.28480    1.000
    C96      C        0.08660    0.09870    0.31040    1.000
    H56      H        0.04260    0.05510    0.30630    1.000
    F16      F        0.74310    0.80570    0.48030    1.000
    Cd5      Cd       0.00000    0.00000    0.00000    1.000
    Cd6      Cd       0.00000    0.50000    0.50000    1.000
