# CIF file generated by openbabel 3.1.0, see https://openbabel.org
data_I
_chemical_name_common 'OKIWEL_charged'
_cell_length_a 15.8731
_cell_length_b 15.8731
_cell_length_c 21.776
_cell_angle_alpha 90
_cell_angle_beta 90
_cell_angle_gamma 90
_space_group_name_H-M_alt 'P 1'
_space_group_name_Hall 'P 1'
loop_
    _symmetry_equiv_pos_as_xyz
    x,y,z
loop_
    _atom_site_label
    _atom_site_type_symbol
    _atom_site_fract_x
    _atom_site_fract_y
    _atom_site_fract_z
    _atom_site_occupancy
    Cd1      Cd       0.55786    0.44214    0.25000    1.000
    Cd2      Cd       0.44214    0.55786    0.75000    1.000
    Cd3      Cd       0.05786    0.05786    0.50000    1.000
    Cd4      Cd       0.94214    0.94214    0.00000    1.000
    H1       H        0.03650    0.11190    0.34960    1.000
    H2       H        0.08390    0.21500    0.28480    1.000
    H3       H        0.28460    0.24310    0.39720    1.000
    H4       H        0.22740    0.14090    0.45990    1.000
    H5       H        0.15260    0.29620    0.22000    1.000
    H6       H        0.20450    0.40980    0.16400    1.000
    H7       H        0.30300    0.50360    0.20840    1.000
    H8       H        0.29760    0.36640    0.36440    1.000
    H9       H        0.54480    0.61950    0.46120    1.000
    H10      H        0.56380    0.72920    0.52920    1.000
    H11      H        0.46480    0.83330    0.53910    1.000
    H12      H        0.32500    0.72340    0.40430    1.000
    H13      H        0.34440    0.89260    0.56520    1.000
    H14      H        0.23380    0.98910    0.57440    1.000
    H15      H        0.16040    0.94300    0.40600    1.000
    H16      H        0.26640    0.84800    0.39090    1.000
    H17      H        0.24130    0.52700    0.39100    1.000
    H18      H        0.24050    0.60390    0.35220    1.000
    H19      H        0.96350    0.88810    0.84960    1.000
    H20      H        0.91610    0.78500    0.78480    1.000
    H21      H        0.71540    0.75690    0.89720    1.000
    H22      H        0.77260    0.85910    0.95990    1.000
    H23      H        0.84740    0.70380    0.72000    1.000
    H24      H        0.79550    0.59020    0.66400    1.000
    H25      H        0.69700    0.49640    0.70840    1.000
    H26      H        0.70240    0.63360    0.86440    1.000
    H27      H        0.45520    0.38050    0.96120    1.000
    H28      H        0.43620    0.27080    0.02920    1.000
    H29      H        0.53520    0.16670    0.03910    1.000
    H30      H        0.67500    0.27660    0.90430    1.000
    H31      H        0.65560    0.10740    0.06520    1.000
    H32      H        0.76620    0.01090    0.07440    1.000
    H33      H        0.83960    0.05700    0.90600    1.000
    H34      H        0.73360    0.15200    0.89090    1.000
    H35      H        0.75870    0.47300    0.89100    1.000
    H36      H        0.75950    0.39610    0.85220    1.000
    H37      H        0.38810    0.53650    0.59960    1.000
    H38      H        0.28500    0.58390    0.53480    1.000
    H39      H        0.25690    0.78460    0.64720    1.000
    H40      H        0.35910    0.72740    0.70990    1.000
    H41      H        0.20380    0.65260    0.47000    1.000
    H42      H        0.09020    0.70450    0.41400    1.000
    H43      H        0.99640    0.80300    0.45840    1.000
    H44      H        0.13360    0.79760    0.61440    1.000
    H45      H        0.88050    0.04480    0.71120    1.000
    H46      H        0.77080    0.06380    0.77920    1.000
    H47      H        0.66670    0.96480    0.78910    1.000
    H48      H        0.77660    0.82500    0.65430    1.000
    H49      H        0.60740    0.84440    0.81520    1.000
    H50      H        0.51090    0.73380    0.82440    1.000
    H51      H        0.55700    0.66040    0.65600    1.000
    H52      H        0.65200    0.76640    0.64090    1.000
    H53      H        0.97300    0.74130    0.64100    1.000
    H54      H        0.89610    0.74050    0.60220    1.000
    H55      H        0.61190    0.46350    0.09960    1.000
    H56      H        0.71500    0.41610    0.03480    1.000
    H57      H        0.74310    0.21540    0.14720    1.000
    H58      H        0.64090    0.27260    0.20990    1.000
    H59      H        0.79620    0.34740    0.97000    1.000
    H60      H        0.90980    0.29550    0.91400    1.000
    H61      H        0.00360    0.19700    0.95840    1.000
    H62      H        0.86640    0.20240    0.11440    1.000
    H63      H        0.11950    0.95520    0.21120    1.000
    H64      H        0.22920    0.93620    0.27920    1.000
    H65      H        0.33330    0.03520    0.28910    1.000
    H66      H        0.22340    0.17500    0.15430    1.000
    H67      H        0.39260    0.15560    0.31520    1.000
    H68      H        0.48910    0.26620    0.32440    1.000
    H69      H        0.44300    0.33960    0.15600    1.000
    H70      H        0.34800    0.23360    0.14090    1.000
    H71      H        0.02700    0.25870    0.14100    1.000
    H72      H        0.10390    0.25950    0.10220    1.000
    H73      H        0.46350    0.61190    0.90040    1.000
    H74      H        0.41610    0.71500    0.96520    1.000
    H75      H        0.21540    0.74310    0.85280    1.000
    H76      H        0.27260    0.64090    0.79010    1.000
    H77      H        0.34740    0.79620    0.03000    1.000
    H78      H        0.29550    0.90980    0.08600    1.000
    H79      H        0.19700    0.00360    0.04160    1.000
    H80      H        0.20240    0.86640    0.88560    1.000
    H81      H        0.95520    0.11950    0.78880    1.000
    H82      H        0.93620    0.22920    0.72080    1.000
    H83      H        0.03520    0.33330    0.71090    1.000
    H84      H        0.17500    0.22340    0.84570    1.000
    H85      H        0.15560    0.39260    0.68480    1.000
    H86      H        0.26620    0.48910    0.67560    1.000
    H87      H        0.33960    0.44300    0.84400    1.000
    H88      H        0.23360    0.34800    0.85910    1.000
    H89      H        0.25870    0.02700    0.85900    1.000
    H90      H        0.25950    0.10390    0.89780    1.000
    H91      H        0.53650    0.38810    0.40040    1.000
    H92      H        0.58390    0.28500    0.46520    1.000
    H93      H        0.78460    0.25690    0.35280    1.000
    H94      H        0.72740    0.35910    0.29010    1.000
    H95      H        0.65260    0.20380    0.53000    1.000
    H96      H        0.70450    0.09020    0.58600    1.000
    H97      H        0.80300    0.99640    0.54160    1.000
    H98      H        0.79760    0.13360    0.38560    1.000
    H99      H        0.04480    0.88050    0.28880    1.000
    H100     H        0.06380    0.77080    0.22080    1.000
    H101     H        0.96480    0.66670    0.21090    1.000
    H102     H        0.82500    0.77660    0.34570    1.000
    H103     H        0.84440    0.60740    0.18480    1.000
    H104     H        0.73380    0.51090    0.17560    1.000
    H105     H        0.66040    0.55700    0.34400    1.000
    H106     H        0.76640    0.65200    0.35910    1.000
    H107     H        0.74130    0.97300    0.35900    1.000
    H108     H        0.74050    0.89610    0.39780    1.000
    H109     H        0.11190    0.03650    0.65040    1.000
    H110     H        0.21500    0.08390    0.71520    1.000
    H111     H        0.24310    0.28460    0.60280    1.000
    H112     H        0.14090    0.22740    0.54010    1.000
    H113     H        0.29620    0.15260    0.78000    1.000
    H114     H        0.40980    0.20450    0.83600    1.000
    H115     H        0.50360    0.30300    0.79160    1.000
    H116     H        0.36640    0.29760    0.63560    1.000
    H117     H        0.61950    0.54480    0.53880    1.000
    H118     H        0.72920    0.56380    0.47080    1.000
    H119     H        0.83330    0.46480    0.46090    1.000
    H120     H        0.72340    0.32500    0.59570    1.000
    H121     H        0.89260    0.34440    0.43480    1.000
    H122     H        0.98910    0.23380    0.42560    1.000
    H123     H        0.94300    0.16040    0.59400    1.000
    H124     H        0.84800    0.26640    0.60910    1.000
    H125     H        0.52700    0.24130    0.60900    1.000
    H126     H        0.60390    0.24050    0.64780    1.000
    H127     H        0.88810    0.96350    0.15040    1.000
    H128     H        0.78500    0.91610    0.21520    1.000
    H129     H        0.75690    0.71540    0.10280    1.000
    H130     H        0.85910    0.77260    0.04010    1.000
    H131     H        0.70380    0.84740    0.28000    1.000
    H132     H        0.59020    0.79550    0.33600    1.000
    H133     H        0.49640    0.69700    0.29160    1.000
    H134     H        0.63360    0.70240    0.13560    1.000
    H135     H        0.38050    0.45520    0.03880    1.000
    H136     H        0.27080    0.43620    0.97080    1.000
    H137     H        0.16670    0.53520    0.96090    1.000
    H138     H        0.27660    0.67500    0.09570    1.000
    H139     H        0.10740    0.65560    0.93480    1.000
    H140     H        0.01090    0.76620    0.92560    1.000
    H141     H        0.05700    0.83960    0.09400    1.000
    H142     H        0.15200    0.73360    0.10910    1.000
    H143     H        0.47300    0.75870    0.10900    1.000
    H144     H        0.39610    0.75950    0.14780    1.000
    C1       C        0.08640    0.14140    0.36040    1.000
    C2       C        0.11430    0.20260    0.32130    1.000
    C3       C        0.18850    0.24700    0.33560    1.000
    C4       C        0.23140    0.21940    0.38720    1.000
    C5       C        0.19720    0.15750    0.42420    1.000
    C6       C        0.21850    0.31930    0.29840    1.000
    C7       C        0.19230    0.33330    0.23830    1.000
    C8       C        0.22330    0.40090    0.20490    1.000
    C9       C        0.28250    0.45660    0.23090    1.000
    C10      C        0.30990    0.44080    0.29030    1.000
    C11      C        0.27850    0.37490    0.32350    1.000
    C12      C        0.37190    0.49690    0.31970    1.000
    C13      C        0.42430    0.59160    0.38190    1.000
    C14      C        0.43260    0.66160    0.42630    1.000
    C15      C        0.50400    0.66320    0.46380    1.000
    C16      C        0.51470    0.72770    0.50420    1.000
    C17      C        0.45640    0.79000    0.50960    1.000
    C18      C        0.38290    0.79200    0.47180    1.000
    C19      C        0.37310    0.72510    0.43010    1.000
    C20      C        0.31810    0.85770    0.47800    1.000
    C21      C        0.30720    0.90140    0.53170    1.000
    C22      C        0.24040    0.95950    0.53680    1.000
    C23      C        0.19830    0.93250    0.43900    1.000
    C24      C        0.26100    0.87550    0.42940    1.000
    C25      C        0.91360    0.85860    0.86040    1.000
    C26      C        0.88570    0.79740    0.82130    1.000
    C27      C        0.81150    0.75300    0.83560    1.000
    C28      C        0.76860    0.78060    0.88720    1.000
    C29      C        0.80280    0.84250    0.92420    1.000
    C30      C        0.78150    0.68070    0.79840    1.000
    C31      C        0.80770    0.66670    0.73830    1.000
    C32      C        0.77670    0.59910    0.70490    1.000
    C33      C        0.71750    0.54340    0.73090    1.000
    C34      C        0.69010    0.55920    0.79030    1.000
    C35      C        0.72150    0.62510    0.82350    1.000
    C36      C        0.62810    0.50310    0.81970    1.000
    C37      C        0.57570    0.40840    0.88190    1.000
    C38      C        0.56740    0.33840    0.92630    1.000
    C39      C        0.49600    0.33680    0.96380    1.000
    C40      C        0.48530    0.27230    0.00420    1.000
    C41      C        0.54360    0.21000    0.00960    1.000
    C42      C        0.61710    0.20800    0.97180    1.000
    C43      C        0.62690    0.27490    0.93010    1.000
    C44      C        0.68190    0.14230    0.97800    1.000
    C45      C        0.69280    0.09860    0.03170    1.000
    C46      C        0.75960    0.04050    0.03680    1.000
    C47      C        0.80170    0.06750    0.93900    1.000
    C48      C        0.73900    0.12450    0.92940    1.000
    C49      C        0.35860    0.58640    0.61040    1.000
    C50      C        0.29740    0.61430    0.57130    1.000
    C51      C        0.25300    0.68850    0.58560    1.000
    C52      C        0.28060    0.73140    0.63720    1.000
    C53      C        0.34250    0.69720    0.67420    1.000
    C54      C        0.18070    0.71850    0.54840    1.000
    C55      C        0.16670    0.69230    0.48830    1.000
    C56      C        0.09910    0.72330    0.45490    1.000
    C57      C        0.04340    0.78250    0.48090    1.000
    C58      C        0.05920    0.80990    0.54030    1.000
    C59      C        0.12510    0.77850    0.57350    1.000
    C60      C        0.00310    0.87190    0.56970    1.000
    C61      C        0.90840    0.92430    0.63190    1.000
    C62      C        0.83840    0.93260    0.67630    1.000
    C63      C        0.83680    0.00400    0.71380    1.000
    C64      C        0.77230    0.01470    0.75420    1.000
    C65      C        0.71000    0.95640    0.75960    1.000
    C66      C        0.70800    0.88290    0.72180    1.000
    C67      C        0.77490    0.87310    0.68010    1.000
    C68      C        0.64230    0.81810    0.72800    1.000
    C69      C        0.59860    0.80720    0.78170    1.000
    C70      C        0.54050    0.74040    0.78680    1.000
    C71      C        0.56750    0.69830    0.68900    1.000
    C72      C        0.62450    0.76100    0.67940    1.000
    C73      C        0.64140    0.41360    0.11040    1.000
    C74      C        0.70260    0.38570    0.07130    1.000
    C75      C        0.74700    0.31150    0.08560    1.000
    C76      C        0.71940    0.26860    0.13720    1.000
    C77      C        0.65750    0.30280    0.17420    1.000
    C78      C        0.81930    0.28150    0.04840    1.000
    C79      C        0.83330    0.30770    0.98830    1.000
    C80      C        0.90090    0.27670    0.95490    1.000
    C81      C        0.95660    0.21750    0.98090    1.000
    C82      C        0.94080    0.19010    0.04030    1.000
    C83      C        0.87490    0.22150    0.07350    1.000
    C84      C        0.99690    0.12810    0.06970    1.000
    C85      C        0.09160    0.07570    0.13190    1.000
    C86      C        0.16160    0.06740    0.17630    1.000
    C87      C        0.16320    0.99600    0.21380    1.000
    C88      C        0.22770    0.98530    0.25420    1.000
    C89      C        0.29000    0.04360    0.25960    1.000
    C90      C        0.29200    0.11710    0.22180    1.000
    C91      C        0.22510    0.12690    0.18010    1.000
    C92      C        0.35770    0.18190    0.22800    1.000
    C93      C        0.40140    0.19280    0.28170    1.000
    C94      C        0.45950    0.25960    0.28680    1.000
    C95      C        0.43250    0.30170    0.18900    1.000
    C96      C        0.37550    0.23900    0.17940    1.000
    C97      C        0.41360    0.64140    0.88960    1.000
    C98      C        0.38570    0.70260    0.92870    1.000
    C99      C        0.31150    0.74700    0.91440    1.000
    C100     C        0.26860    0.71940    0.86280    1.000
    C101     C        0.30280    0.65750    0.82580    1.000
    C102     C        0.28150    0.81930    0.95160    1.000
    C103     C        0.30770    0.83330    0.01170    1.000
    C104     C        0.27670    0.90090    0.04510    1.000
    C105     C        0.21750    0.95660    0.01910    1.000
    C106     C        0.19010    0.94080    0.95970    1.000
    C107     C        0.22150    0.87490    0.92650    1.000
    C108     C        0.12810    0.99690    0.93030    1.000
    C109     C        0.07570    0.09160    0.86810    1.000
    C110     C        0.06740    0.16160    0.82370    1.000
    C111     C        0.99600    0.16320    0.78620    1.000
    C112     C        0.98530    0.22770    0.74580    1.000
    C113     C        0.04360    0.29000    0.74040    1.000
    C114     C        0.11710    0.29200    0.77820    1.000
    C115     C        0.12690    0.22510    0.81990    1.000
    C116     C        0.18190    0.35770    0.77200    1.000
    C117     C        0.19280    0.40140    0.71830    1.000
    C118     C        0.25960    0.45950    0.71320    1.000
    C119     C        0.30170    0.43250    0.81100    1.000
    C120     C        0.23900    0.37550    0.82060    1.000
    C121     C        0.58640    0.35860    0.38960    1.000
    C122     C        0.61430    0.29740    0.42870    1.000
    C123     C        0.68850    0.25300    0.41440    1.000
    C124     C        0.73140    0.28060    0.36280    1.000
    C125     C        0.69720    0.34250    0.32580    1.000
    C126     C        0.71850    0.18070    0.45160    1.000
    C127     C        0.69230    0.16670    0.51170    1.000
    C128     C        0.72330    0.09910    0.54510    1.000
    C129     C        0.78250    0.04340    0.51910    1.000
    C130     C        0.80990    0.05920    0.45970    1.000
    C131     C        0.77850    0.12510    0.42650    1.000
    C132     C        0.87190    0.00310    0.43030    1.000
    C133     C        0.92430    0.90840    0.36810    1.000
    C134     C        0.93260    0.83840    0.32370    1.000
    C135     C        0.00400    0.83680    0.28620    1.000
    C136     C        0.01470    0.77230    0.24580    1.000
    C137     C        0.95640    0.71000    0.24040    1.000
    C138     C        0.88290    0.70800    0.27820    1.000
    C139     C        0.87310    0.77490    0.31990    1.000
    C140     C        0.81810    0.64230    0.27200    1.000
    C141     C        0.80720    0.59860    0.21830    1.000
    C142     C        0.74040    0.54050    0.21320    1.000
    C143     C        0.69830    0.56750    0.31100    1.000
    C144     C        0.76100    0.62450    0.32060    1.000
    C145     C        0.14140    0.08640    0.63960    1.000
    C146     C        0.20260    0.11430    0.67870    1.000
    C147     C        0.24700    0.18850    0.66440    1.000
    C148     C        0.21940    0.23140    0.61280    1.000
    C149     C        0.15750    0.19720    0.57580    1.000
    C150     C        0.31930    0.21850    0.70160    1.000
    C151     C        0.33330    0.19230    0.76170    1.000
    C152     C        0.40090    0.22330    0.79510    1.000
    C153     C        0.45660    0.28250    0.76910    1.000
    C154     C        0.44080    0.30990    0.70970    1.000
    C155     C        0.37490    0.27850    0.67650    1.000
    C156     C        0.49690    0.37190    0.68030    1.000
    C157     C        0.59160    0.42430    0.61810    1.000
    C158     C        0.66160    0.43260    0.57370    1.000
    C159     C        0.66320    0.50400    0.53620    1.000
    C160     C        0.72770    0.51470    0.49580    1.000
    C161     C        0.79000    0.45640    0.49040    1.000
    C162     C        0.79200    0.38290    0.52820    1.000
    C163     C        0.72510    0.37310    0.56990    1.000
    C164     C        0.85770    0.31810    0.52200    1.000
    C165     C        0.90140    0.30720    0.46830    1.000
    C166     C        0.95950    0.24040    0.46320    1.000
    C167     C        0.93250    0.19830    0.56100    1.000
    C168     C        0.87550    0.26100    0.57060    1.000
    C169     C        0.85860    0.91360    0.13960    1.000
    C170     C        0.79740    0.88570    0.17870    1.000
    C171     C        0.75300    0.81150    0.16440    1.000
    C172     C        0.78060    0.76860    0.11280    1.000
    C173     C        0.84250    0.80280    0.07580    1.000
    C174     C        0.68070    0.78150    0.20160    1.000
    C175     C        0.66670    0.80770    0.26170    1.000
    C176     C        0.59910    0.77670    0.29510    1.000
    C177     C        0.54340    0.71750    0.26910    1.000
    C178     C        0.55920    0.69010    0.20970    1.000
    C179     C        0.62510    0.72150    0.17650    1.000
    C180     C        0.50310    0.62810    0.18030    1.000
    C181     C        0.40840    0.57570    0.11810    1.000
    C182     C        0.33840    0.56740    0.07370    1.000
    C183     C        0.33680    0.49600    0.03620    1.000
    C184     C        0.27230    0.48530    0.99580    1.000
    C185     C        0.21000    0.54360    0.99040    1.000
    C186     C        0.20800    0.61710    0.02820    1.000
    C187     C        0.27490    0.62690    0.06990    1.000
    C188     C        0.14230    0.68190    0.02200    1.000
    C189     C        0.09860    0.69280    0.96830    1.000
    C190     C        0.04050    0.75960    0.96320    1.000
    C191     C        0.06750    0.80170    0.06100    1.000
    C192     C        0.12450    0.73900    0.07060    1.000
    N1       N        0.12420    0.12020    0.41260    1.000
    N2       N        0.45520    0.49460    0.31600    1.000
    N3       N        0.48790    0.55410    0.35510    1.000
    N4       N        0.35070    0.55660    0.36090    1.000
    N5       N        0.26890    0.57570    0.38210    1.000
    N6       N        0.18610    0.97500    0.49160    1.000
    N7       N        0.87580    0.87980    0.91260    1.000
    N8       N        0.54480    0.50540    0.81600    1.000
    N9       N        0.51210    0.44590    0.85510    1.000
    N10      N        0.64930    0.44340    0.86090    1.000
    N11      N        0.73110    0.42430    0.88210    1.000
    N12      N        0.81390    0.02500    0.99160    1.000
    N13      N        0.37980    0.62420    0.66260    1.000
    N14      N        0.00540    0.95520    0.56600    1.000
    N15      N        0.94590    0.98790    0.60510    1.000
    N16      N        0.94340    0.85070    0.61090    1.000
    N17      N        0.92430    0.76890    0.63210    1.000
    N18      N        0.52500    0.68610    0.74160    1.000
    N19      N        0.62020    0.37580    0.16260    1.000
    N20      N        0.99460    0.04480    0.06600    1.000
    N21      N        0.05410    0.01210    0.10510    1.000
    N22      N        0.05660    0.14930    0.11090    1.000
    N23      N        0.07570    0.23110    0.13210    1.000
    N24      N        0.47500    0.31390    0.24160    1.000
    N25      N        0.37580    0.62020    0.83740    1.000
    N26      N        0.04480    0.99460    0.93400    1.000
    N27      N        0.01210    0.05410    0.89490    1.000
    N28      N        0.14930    0.05660    0.88910    1.000
    N29      N        0.23110    0.07570    0.86790    1.000
    N30      N        0.31390    0.47500    0.75840    1.000
    N31      N        0.62420    0.37980    0.33740    1.000
    N32      N        0.95520    0.00540    0.43400    1.000
    N33      N        0.98790    0.94590    0.39490    1.000
    N34      N        0.85070    0.94340    0.38910    1.000
    N35      N        0.76890    0.92430    0.36790    1.000
    N36      N        0.68610    0.52500    0.25840    1.000
    N37      N        0.12020    0.12420    0.58740    1.000
    N38      N        0.49460    0.45520    0.68400    1.000
    N39      N        0.55410    0.48790    0.64490    1.000
    N40      N        0.55660    0.35070    0.63910    1.000
    N41      N        0.57570    0.26890    0.61790    1.000
    N42      N        0.97500    0.18610    0.50840    1.000
    N43      N        0.87980    0.87580    0.08740    1.000
    N44      N        0.50540    0.54480    0.18400    1.000
    N45      N        0.44590    0.51210    0.14490    1.000
    N46      N        0.44340    0.64930    0.13910    1.000
    N47      N        0.42430    0.73110    0.11790    1.000
    N48      N        0.02500    0.81390    0.00840    1.000
    Cl1      Cl       0.23162    0.23162    0.00000    1.000
    O1       O        0.26130    0.27270    0.05220    1.000
    O2       O        0.27690    0.15780    0.00800    1.000
    O3       O        0.27270    0.26130    0.94780    1.000
    O4       O        0.15780    0.27690    0.99200    1.000
    Cl2      Cl       0.62109    0.62109    0.00000    1.000
    O5       O        0.64200    0.55160    0.97130    1.000
    O6       O        0.66450    0.59700    0.05340    1.000
    O7       O        0.55160    0.64200    0.02870    1.000
    O8       O        0.59700    0.66450    0.94660    1.000
    Cl3      Cl       0.76838    0.76838    0.50000    1.000
    O9       O        0.73870    0.72730    0.55220    1.000
    O10      O        0.72310    0.84220    0.50800    1.000
    O11      O        0.72730    0.73870    0.44780    1.000
    O12      O        0.84220    0.72310    0.49200    1.000
    Cl4      Cl       0.37891    0.37891    0.50000    1.000
    O13      O        0.35800    0.44840    0.47130    1.000
    O14      O        0.33550    0.40300    0.55340    1.000
    O15      O        0.44840    0.35800    0.52870    1.000
    O16      O        0.40300    0.33550    0.44660    1.000
    Cl5      Cl       0.26838    0.73162    0.25000    1.000
    O17      O        0.22730    0.76130    0.30220    1.000
    O18      O        0.34220    0.77690    0.25800    1.000
    O19      O        0.23870    0.77270    0.19780    1.000
    O20      O        0.22310    0.65780    0.24200    1.000
    Cl6      Cl       0.87891    0.12109    0.25000    1.000
    O21      O        0.94840    0.14200    0.22130    1.000
    O22      O        0.90300    0.16450    0.30340    1.000
    O23      O        0.85800    0.05160    0.27870    1.000
    O24      O        0.83550    0.09700    0.19660    1.000
    Cl7      Cl       0.73162    0.26838    0.75000    1.000
    O25      O        0.77270    0.23870    0.80220    1.000
    O26      O        0.65780    0.22310    0.75800    1.000
    O27      O        0.76130    0.22730    0.69780    1.000
    O28      O        0.77690    0.34220    0.74200    1.000
    Cl8      Cl       0.12109    0.87891    0.75000    1.000
    O29      O        0.05160    0.85800    0.72130    1.000
    O30      O        0.09700    0.83550    0.80340    1.000
    O31      O        0.14200    0.94840    0.77870    1.000
    O32      O        0.16450    0.90300    0.69660    1.000
