# CIF file generated by openbabel 3.1.0, see https://openbabel.org
data_I
_chemical_name_common 'image0'
_cell_length_a 7.3583
_cell_length_b 27.28
_cell_length_c 27.856
_cell_angle_alpha 90
_cell_angle_beta 90
_cell_angle_gamma 90
_space_group_name_H-M_alt 'P 1'
_space_group_name_Hall 'P 1'
loop_
    _symmetry_equiv_pos_as_xyz
    x,y,z
loop_
    _atom_site_label
    _atom_site_type_symbol
    _atom_site_fract_x
    _atom_site_fract_y
    _atom_site_fract_z
    _atom_site_occupancy
    Ba1      Ba       0.86512    0.13979    0.28842    1.000
    C1       C        0.22230    0.03125    0.36333    1.000
    H1       H        0.10290    0.04270    0.35370    1.000
    H2       H        0.27000    0.01090    0.33770    1.000
    C2       C        0.34730    0.07543    0.37042    1.000
    H3       H        0.28700    0.09780    0.39290    1.000
    C3       C        0.52700    0.05929    0.39325    1.000
    H4       H        0.59690    0.04100    0.36980    1.000
    H5       H        0.59670    0.08810    0.40200    1.000
    C4       C        0.49900    0.02756    0.43790    1.000
    H6       H        0.61550    0.01560    0.44920    1.000
    H7       H        0.44490    0.04710    0.46320    1.000
    C5       C        0.20420    0.00071    0.40831    1.000
    H8       H        0.14030    0.01940    0.43260    1.000
    H9       H        0.13290    0.97170    0.40130    1.000
    C6       C        0.44300    0.93953    0.42269    1.000
    C7       C        0.64880    0.88072    0.44016    1.000
    C8       C        0.39860    0.86155    0.39783    1.000
    C9       C        0.94060    0.72694    0.29889    1.000
    C10      C        0.09480    0.76157    0.31086    1.000
    H10      H        0.17200    0.76470    0.28240    1.000
    C11      C        0.36690    0.10222    0.32257    1.000
    C12      C        0.15020    0.82835    0.57739    1.000
    C13      C        0.94600    0.90339    0.47378    1.000
    H11      H        0.89330    0.93600    0.47400    1.000
    H12      H        0.04230    0.90280    0.45000    1.000
    C14      C        0.02430    0.89211    0.52265    1.000
    H13      H        0.93180    0.89780    0.54680    1.000
    H14      H        0.12430    0.91440    0.52900    1.000
    C15      C        0.94180    0.80436    0.51138    1.000
    H15      H        0.98850    0.77110    0.51140    1.000
    H16      H        0.84260    0.80590    0.53430    1.000
    C16      C        0.87080    0.81676    0.46178    1.000
    H17      H        0.96690    0.81250    0.43830    1.000
    H18      H        0.77190    0.79480    0.45350    1.000
    C17      C        0.36750    0.77916    0.36286    1.000
    H19      H        0.43540    0.76790    0.39060    1.000
    H20      H        0.44960    0.78010    0.33560    1.000
    C18      C        0.02270    0.81199    0.32338    1.000
    H21      H        0.95200    0.82460    0.29670    1.000
    H22      H        0.94310    0.80960    0.35100    1.000
    C19      C        0.17740    0.84746    0.33452    1.000
    H23      H        0.24790    0.85310    0.30560    1.000
    H24      H        0.12710    0.87860    0.34470    1.000
    C20      C        0.09230    0.83956    0.52700    1.000
    H25      H        0.19700    0.83530    0.50560    1.000
    C21      C        0.21290    0.74349    0.35250    1.000
    H26      H        0.26300    0.71160    0.34460    1.000
    H27      H        0.13840    0.73990    0.38100    1.000
    N1       N        0.38070    0.98614    0.42674    1.000
    N2       N        0.33490    0.90775    0.39896    1.000
    N3       N        0.60440    0.92873    0.44230    1.000
    N4       N        0.54920    0.84529    0.41877    1.000
    N5       N        0.80660    0.86756    0.46091    1.000
    N6       N        0.29650    0.82862    0.37208    1.000
    O1       O        0.52060    0.10649    0.30385    1.000
    O2       O        0.93400    0.70788    0.25817    1.000
    O3       O        0.81800    0.71917    0.32999    1.000
    O4       O        0.22340    0.11734    0.30282    1.000
    O5       O        0.08740    0.84940    0.61198    1.000
    O6       O        0.27200    0.79365    0.58101    1.000
    Ba2      Ba       0.63488    0.86021    0.78842    1.000
    C22      C        0.27770    0.96875    0.86333    1.000
    H28      H        0.39710    0.95730    0.85370    1.000
    H29      H        0.23000    0.98910    0.83770    1.000
    C23      C        0.15270    0.92457    0.87042    1.000
    H30      H        0.21300    0.90220    0.89290    1.000
    C24      C        0.97300    0.94071    0.89325    1.000
    H31      H        0.90310    0.95900    0.86980    1.000
    H32      H        0.90330    0.91190    0.90200    1.000
    C25      C        0.00100    0.97244    0.93790    1.000
    H33      H        0.88450    0.98440    0.94920    1.000
    H34      H        0.05510    0.95290    0.96320    1.000
    C26      C        0.29580    0.99929    0.90831    1.000
    H35      H        0.35970    0.98060    0.93260    1.000
    H36      H        0.36710    0.02830    0.90130    1.000
    C27      C        0.05700    0.06047    0.92269    1.000
    C28      C        0.85120    0.11928    0.94016    1.000
    C29      C        0.10140    0.13845    0.89783    1.000
    C30      C        0.55940    0.27306    0.79889    1.000
    C31      C        0.40520    0.23843    0.81086    1.000
    H37      H        0.32800    0.23530    0.78240    1.000
    C32      C        0.13310    0.89778    0.82257    1.000
    C33      C        0.34980    0.17165    0.07739    1.000
    C34      C        0.55400    0.09661    0.97378    1.000
    H38      H        0.60670    0.06400    0.97400    1.000
    H39      H        0.45770    0.09720    0.95000    1.000
    C35      C        0.47570    0.10789    0.02265    1.000
    H40      H        0.56820    0.10220    0.04680    1.000
    H41      H        0.37570    0.08560    0.02900    1.000
    C36      C        0.55820    0.19564    0.01138    1.000
    H42      H        0.51150    0.22890    0.01140    1.000
    H43      H        0.65740    0.19410    0.03430    1.000
    C37      C        0.62920    0.18324    0.96178    1.000
    H44      H        0.53310    0.18750    0.93830    1.000
    H45      H        0.72810    0.20520    0.95350    1.000
    C38      C        0.13250    0.22084    0.86286    1.000
    H46      H        0.06460    0.23210    0.89060    1.000
    H47      H        0.05040    0.21990    0.83560    1.000
    C39      C        0.47730    0.18801    0.82338    1.000
    H48      H        0.54800    0.17540    0.79670    1.000
    H49      H        0.55690    0.19040    0.85100    1.000
    C40      C        0.32260    0.15254    0.83452    1.000
    H50      H        0.25210    0.14690    0.80560    1.000
    H51      H        0.37290    0.12140    0.84470    1.000
    C41      C        0.40770    0.16044    0.02700    1.000
    H52      H        0.30300    0.16470    0.00560    1.000
    C42      C        0.28710    0.25651    0.85250    1.000
    H53      H        0.23700    0.28840    0.84460    1.000
    H54      H        0.36160    0.26010    0.88100    1.000
    N7       N        0.11930    0.01386    0.92674    1.000
    N8       N        0.16510    0.09225    0.89896    1.000
    N9       N        0.89560    0.07127    0.94230    1.000
    N10      N        0.95080    0.15471    0.91877    1.000
    N11      N        0.69340    0.13244    0.96091    1.000
    N12      N        0.20350    0.17138    0.87208    1.000
    O7       O        0.97940    0.89351    0.80385    1.000
    O8       O        0.56600    0.29212    0.75817    1.000
    O9       O        0.68200    0.28083    0.82999    1.000
    O10      O        0.27660    0.88266    0.80282    1.000
    O11      O        0.41260    0.15060    0.11198    1.000
    O12      O        0.22800    0.20635    0.08101    1.000
    Ba3      Ba       0.13488    0.63979    0.21158    1.000
    C43      C        0.77770    0.53125    0.13667    1.000
    H55      H        0.89710    0.54270    0.14630    1.000
    H56      H        0.73000    0.51090    0.16230    1.000
    C44      C        0.65270    0.57543    0.12958    1.000
    H57      H        0.71300    0.59780    0.10710    1.000
    C45      C        0.47300    0.55929    0.10675    1.000
    H58      H        0.40310    0.54100    0.13020    1.000
    H59      H        0.40330    0.58810    0.09800    1.000
    C46      C        0.50100    0.52756    0.06210    1.000
    H60      H        0.38450    0.51560    0.05080    1.000
    H61      H        0.55510    0.54710    0.03680    1.000
    C47      C        0.79580    0.50071    0.09169    1.000
    H62      H        0.85970    0.51940    0.06740    1.000
    H63      H        0.86710    0.47170    0.09870    1.000
    C48      C        0.55700    0.43953    0.07731    1.000
    C49      C        0.35120    0.38072    0.05984    1.000
    C50      C        0.60140    0.36155    0.10217    1.000
    C51      C        0.05940    0.22694    0.20111    1.000
    C52      C        0.90520    0.26157    0.18914    1.000
    H64      H        0.82800    0.26470    0.21760    1.000
    C53      C        0.63310    0.60222    0.17743    1.000
    C54      C        0.84980    0.32835    0.92261    1.000
    C55      C        0.05400    0.40339    0.02622    1.000
    H65      H        0.10670    0.43600    0.02600    1.000
    H66      H        0.95770    0.40280    0.05000    1.000
    C56      C        0.97570    0.39211    0.97735    1.000
    H67      H        0.06820    0.39780    0.95320    1.000
    H68      H        0.87570    0.41440    0.97100    1.000
    C57      C        0.05820    0.30436    0.98862    1.000
    H69      H        0.01150    0.27110    0.98860    1.000
    H70      H        0.15740    0.30590    0.96570    1.000
    C58      C        0.12920    0.31676    0.03822    1.000
    H71      H        0.03310    0.31250    0.06170    1.000
    H72      H        0.22810    0.29480    0.04650    1.000
    C59      C        0.63250    0.27916    0.13714    1.000
    H73      H        0.56460    0.26790    0.10940    1.000
    H74      H        0.55040    0.28010    0.16440    1.000
    C60      C        0.97730    0.31199    0.17662    1.000
    H75      H        0.04800    0.32460    0.20330    1.000
    H76      H        0.05690    0.30960    0.14900    1.000
    C61      C        0.82260    0.34746    0.16548    1.000
    H77      H        0.75210    0.35310    0.19440    1.000
    H78      H        0.87290    0.37860    0.15530    1.000
    C62      C        0.90770    0.33956    0.97300    1.000
    H79      H        0.80300    0.33530    0.99440    1.000
    C63      C        0.78710    0.24349    0.14750    1.000
    H80      H        0.73700    0.21160    0.15540    1.000
    H81      H        0.86160    0.23990    0.11900    1.000
    N13      N        0.61930    0.48614    0.07326    1.000
    N14      N        0.66510    0.40775    0.10104    1.000
    N15      N        0.39560    0.42873    0.05770    1.000
    N16      N        0.45080    0.34529    0.08123    1.000
    N17      N        0.19340    0.36756    0.03909    1.000
    N18      N        0.70350    0.32862    0.12792    1.000
    O13      O        0.47940    0.60649    0.19615    1.000
    O14      O        0.06600    0.20788    0.24183    1.000
    O15      O        0.18200    0.21917    0.17001    1.000
    O16      O        0.77660    0.61734    0.19718    1.000
    O17      O        0.91260    0.34940    0.88802    1.000
    O18      O        0.72800    0.29365    0.91899    1.000
    Ba4      Ba       0.36512    0.36021    0.71158    1.000
    C64      C        0.72230    0.46875    0.63667    1.000
    H82      H        0.60290    0.45730    0.64630    1.000
    H83      H        0.77000    0.48910    0.66230    1.000
    C65      C        0.84730    0.42457    0.62958    1.000
    H84      H        0.78700    0.40220    0.60710    1.000
    C66      C        0.02700    0.44071    0.60675    1.000
    H85      H        0.09690    0.45900    0.63020    1.000
    H86      H        0.09670    0.41190    0.59800    1.000
    C67      C        0.99900    0.47244    0.56210    1.000
    H87      H        0.11550    0.48440    0.55080    1.000
    H88      H        0.94490    0.45290    0.53680    1.000
    C68      C        0.70420    0.49929    0.59169    1.000
    H89      H        0.64030    0.48060    0.56740    1.000
    H90      H        0.63290    0.52830    0.59870    1.000
    C69      C        0.94300    0.56047    0.57731    1.000
    C70      C        0.14880    0.61928    0.55984    1.000
    C71      C        0.89860    0.63845    0.60217    1.000
    C72      C        0.44060    0.77306    0.70111    1.000
    C73      C        0.59480    0.73843    0.68914    1.000
    H91      H        0.67200    0.73530    0.71760    1.000
    C74      C        0.86690    0.39778    0.67743    1.000
    C75      C        0.65020    0.67165    0.42261    1.000
    C76      C        0.44600    0.59661    0.52622    1.000
    H92      H        0.39330    0.56400    0.52600    1.000
    H93      H        0.54230    0.59720    0.55000    1.000
    C77      C        0.52430    0.60789    0.47735    1.000
    H94      H        0.43180    0.60220    0.45320    1.000
    H95      H        0.62430    0.58560    0.47100    1.000
    C78      C        0.44180    0.69564    0.48862    1.000
    H96      H        0.48850    0.72890    0.48860    1.000
    H97      H        0.34260    0.69410    0.46570    1.000
    C79      C        0.37080    0.68324    0.53822    1.000
    H98      H        0.46690    0.68750    0.56170    1.000
    H99      H        0.27190    0.70520    0.54650    1.000
    C80      C        0.86750    0.72084    0.63714    1.000
    H100     H        0.93540    0.73210    0.60940    1.000
    H101     H        0.94960    0.71990    0.66440    1.000
    C81      C        0.52270    0.68801    0.67662    1.000
    H102     H        0.45200    0.67540    0.70330    1.000
    H103     H        0.44310    0.69040    0.64900    1.000
    C82      C        0.67740    0.65254    0.66548    1.000
    H104     H        0.74790    0.64690    0.69440    1.000
    H105     H        0.62710    0.62140    0.65530    1.000
    C83      C        0.59230    0.66044    0.47300    1.000
    H106     H        0.69700    0.66470    0.49440    1.000
    C84      C        0.71290    0.75651    0.64750    1.000
    H107     H        0.76300    0.78840    0.65540    1.000
    H108     H        0.63840    0.76010    0.61900    1.000
    N19      N        0.88070    0.51386    0.57326    1.000
    N20      N        0.83490    0.59225    0.60104    1.000
    N21      N        0.10440    0.57127    0.55770    1.000
    N22      N        0.04920    0.65471    0.58123    1.000
    N23      N        0.30660    0.63244    0.53909    1.000
    N24      N        0.79650    0.67138    0.62792    1.000
    O19      O        0.02060    0.39351    0.69615    1.000
    O20      O        0.43400    0.79212    0.74183    1.000
    O21      O        0.31800    0.78083    0.67001    1.000
    O22      O        0.72340    0.38266    0.69718    1.000
    O23      O        0.58740    0.65060    0.38802    1.000
    O24      O        0.77200    0.70635    0.41899    1.000
    Ba5      Ba       0.13488    0.86021    0.71158    1.000
    C85      C        0.77770    0.96875    0.63667    1.000
    H109     H        0.89710    0.95730    0.64630    1.000
    H110     H        0.73000    0.98910    0.66230    1.000
    C86      C        0.65270    0.92457    0.62958    1.000
    H111     H        0.71300    0.90220    0.60710    1.000
    C87      C        0.47300    0.94071    0.60675    1.000
    H112     H        0.40310    0.95900    0.63020    1.000
    H113     H        0.40330    0.91190    0.59800    1.000
    C88      C        0.50100    0.97244    0.56210    1.000
    H114     H        0.38450    0.98440    0.55080    1.000
    H115     H        0.55510    0.95290    0.53680    1.000
    C89      C        0.79580    0.99929    0.59169    1.000
    H116     H        0.85970    0.98060    0.56740    1.000
    H117     H        0.86710    0.02830    0.59870    1.000
    C90      C        0.55700    0.06047    0.57731    1.000
    C91      C        0.35120    0.11928    0.55984    1.000
    C92      C        0.60140    0.13845    0.60217    1.000
    C93      C        0.05940    0.27306    0.70111    1.000
    C94      C        0.90520    0.23843    0.68914    1.000
    H118     H        0.82800    0.23530    0.71760    1.000
    C95      C        0.63310    0.89778    0.67743    1.000
    C96      C        0.84980    0.17165    0.42261    1.000
    C97      C        0.05400    0.09661    0.52622    1.000
    H119     H        0.10670    0.06400    0.52600    1.000
    H120     H        0.95770    0.09720    0.55000    1.000
    C98      C        0.97570    0.10789    0.47735    1.000
    H121     H        0.06820    0.10220    0.45320    1.000
    H122     H        0.87570    0.08560    0.47100    1.000
    C99      C        0.05820    0.19564    0.48862    1.000
    H123     H        0.01150    0.22890    0.48860    1.000
    H124     H        0.15740    0.19410    0.46570    1.000
    C100     C        0.12920    0.18324    0.53822    1.000
    H125     H        0.03310    0.18750    0.56170    1.000
    H126     H        0.22810    0.20520    0.54650    1.000
    C101     C        0.63250    0.22084    0.63714    1.000
    H127     H        0.56460    0.23210    0.60940    1.000
    H128     H        0.55040    0.21990    0.66440    1.000
    C102     C        0.97730    0.18801    0.67662    1.000
    H129     H        0.04800    0.17540    0.70330    1.000
    H130     H        0.05690    0.19040    0.64900    1.000
    C103     C        0.82260    0.15254    0.66548    1.000
    H131     H        0.75210    0.14690    0.69440    1.000
    H132     H        0.87290    0.12140    0.65530    1.000
    C104     C        0.90770    0.16044    0.47300    1.000
    H133     H        0.80300    0.16470    0.49440    1.000
    C105     C        0.78710    0.25651    0.64750    1.000
    H134     H        0.73700    0.28840    0.65540    1.000
    H135     H        0.86160    0.26010    0.61900    1.000
    N25      N        0.61930    0.01386    0.57326    1.000
    N26      N        0.66510    0.09225    0.60104    1.000
    N27      N        0.39560    0.07127    0.55770    1.000
    N28      N        0.45080    0.15471    0.58123    1.000
    N29      N        0.19340    0.13244    0.53909    1.000
    N30      N        0.70350    0.17138    0.62792    1.000
    O25      O        0.47940    0.89351    0.69615    1.000
    O26      O        0.06600    0.29212    0.74183    1.000
    O27      O        0.18200    0.28083    0.67001    1.000
    O28      O        0.77660    0.88266    0.69718    1.000
    O29      O        0.91260    0.15060    0.38802    1.000
    O30      O        0.72800    0.20635    0.41899    1.000
    Ba6      Ba       0.36512    0.13979    0.21158    1.000
    C106     C        0.72230    0.03125    0.13667    1.000
    H136     H        0.60290    0.04270    0.14630    1.000
    H137     H        0.77000    0.01090    0.16230    1.000
    C107     C        0.84730    0.07543    0.12958    1.000
    H138     H        0.78700    0.09780    0.10710    1.000
    C108     C        0.02700    0.05929    0.10675    1.000
    H139     H        0.09690    0.04100    0.13020    1.000
    H140     H        0.09670    0.08810    0.09800    1.000
    C109     C        0.99900    0.02756    0.06210    1.000
    H141     H        0.11550    0.01560    0.05080    1.000
    H142     H        0.94490    0.04710    0.03680    1.000
    C110     C        0.70420    0.00071    0.09169    1.000
    H143     H        0.64030    0.01940    0.06740    1.000
    H144     H        0.63290    0.97170    0.09870    1.000
    C111     C        0.94300    0.93953    0.07731    1.000
    C112     C        0.14880    0.88072    0.05984    1.000
    C113     C        0.89860    0.86155    0.10217    1.000
    C114     C        0.44060    0.72694    0.20111    1.000
    C115     C        0.59480    0.76157    0.18914    1.000
    H145     H        0.67200    0.76470    0.21760    1.000
    C116     C        0.86690    0.10222    0.17743    1.000
    C117     C        0.65020    0.82835    0.92261    1.000
    C118     C        0.44600    0.90339    0.02622    1.000
    H146     H        0.39330    0.93600    0.02600    1.000
    H147     H        0.54230    0.90280    0.05000    1.000
    C119     C        0.52430    0.89211    0.97735    1.000
    H148     H        0.43180    0.89780    0.95320    1.000
    H149     H        0.62430    0.91440    0.97100    1.000
    C120     C        0.44180    0.80436    0.98862    1.000
    H150     H        0.48850    0.77110    0.98860    1.000
    H151     H        0.34260    0.80590    0.96570    1.000
    C121     C        0.37080    0.81676    0.03822    1.000
    H152     H        0.46690    0.81250    0.06170    1.000
    H153     H        0.27190    0.79480    0.04650    1.000
    C122     C        0.86750    0.77916    0.13714    1.000
    H154     H        0.93540    0.76790    0.10940    1.000
    H155     H        0.94960    0.78010    0.16440    1.000
    C123     C        0.52270    0.81199    0.17662    1.000
    H156     H        0.45200    0.82460    0.20330    1.000
    H157     H        0.44310    0.80960    0.14900    1.000
    C124     C        0.67740    0.84746    0.16548    1.000
    H158     H        0.74790    0.85310    0.19440    1.000
    H159     H        0.62710    0.87860    0.15530    1.000
    C125     C        0.59230    0.83956    0.97300    1.000
    H160     H        0.69700    0.83530    0.99440    1.000
    C126     C        0.71290    0.74349    0.14750    1.000
    H161     H        0.76300    0.71160    0.15540    1.000
    H162     H        0.63840    0.73990    0.11900    1.000
    N31      N        0.88070    0.98614    0.07326    1.000
    N32      N        0.83490    0.90775    0.10104    1.000
    N33      N        0.10440    0.92873    0.05770    1.000
    N34      N        0.04920    0.84529    0.08123    1.000
    N35      N        0.30660    0.86756    0.03909    1.000
    N36      N        0.79650    0.82862    0.12792    1.000
    O31      O        0.02060    0.10649    0.19615    1.000
    O32      O        0.43400    0.70788    0.24183    1.000
    O33      O        0.31800    0.71917    0.17001    1.000
    O34      O        0.72340    0.11734    0.19718    1.000
    O35      O        0.58740    0.84940    0.88802    1.000
    O36      O        0.77200    0.79365    0.91899    1.000
    Ba7      Ba       0.86512    0.36021    0.78842    1.000
    C127     C        0.22230    0.46875    0.86333    1.000
    H163     H        0.10290    0.45730    0.85370    1.000
    H164     H        0.27000    0.48910    0.83770    1.000
    C128     C        0.34730    0.42457    0.87042    1.000
    H165     H        0.28700    0.40220    0.89290    1.000
    C129     C        0.52700    0.44071    0.89325    1.000
    H166     H        0.59690    0.45900    0.86980    1.000
    H167     H        0.59670    0.41190    0.90200    1.000
    C130     C        0.49900    0.47244    0.93790    1.000
    H168     H        0.61550    0.48440    0.94920    1.000
    H169     H        0.44490    0.45290    0.96320    1.000
    C131     C        0.20420    0.49929    0.90831    1.000
    H170     H        0.14030    0.48060    0.93260    1.000
    H171     H        0.13290    0.52830    0.90130    1.000
    C132     C        0.44300    0.56047    0.92269    1.000
    C133     C        0.64880    0.61928    0.94016    1.000
    C134     C        0.39860    0.63845    0.89783    1.000
    C135     C        0.94060    0.77306    0.79889    1.000
    C136     C        0.09480    0.73843    0.81086    1.000
    H172     H        0.17200    0.73530    0.78240    1.000
    C137     C        0.36690    0.39778    0.82257    1.000
    C138     C        0.15020    0.67165    0.07739    1.000
    C139     C        0.94600    0.59661    0.97378    1.000
    H173     H        0.89330    0.56400    0.97400    1.000
    H174     H        0.04230    0.59720    0.95000    1.000
    C140     C        0.02430    0.60789    0.02265    1.000
    H175     H        0.93180    0.60220    0.04680    1.000
    H176     H        0.12430    0.58560    0.02900    1.000
    C141     C        0.94180    0.69564    0.01138    1.000
    H177     H        0.98850    0.72890    0.01140    1.000
    H178     H        0.84260    0.69410    0.03430    1.000
    C142     C        0.87080    0.68324    0.96178    1.000
    H179     H        0.96690    0.68750    0.93830    1.000
    H180     H        0.77190    0.70520    0.95350    1.000
    C143     C        0.36750    0.72084    0.86286    1.000
    H181     H        0.43540    0.73210    0.89060    1.000
    H182     H        0.44960    0.71990    0.83560    1.000
    C144     C        0.02270    0.68801    0.82338    1.000
    H183     H        0.95200    0.67540    0.79670    1.000
    H184     H        0.94310    0.69040    0.85100    1.000
    C145     C        0.17740    0.65254    0.83452    1.000
    H185     H        0.24790    0.64690    0.80560    1.000
    H186     H        0.12710    0.62140    0.84470    1.000
    C146     C        0.09230    0.66044    0.02700    1.000
    H187     H        0.19700    0.66470    0.00560    1.000
    C147     C        0.21290    0.75651    0.85250    1.000
    H188     H        0.26300    0.78840    0.84460    1.000
    H189     H        0.13840    0.76010    0.88100    1.000
    N37      N        0.38070    0.51386    0.92674    1.000
    N38      N        0.33490    0.59225    0.89896    1.000
    N39      N        0.60440    0.57127    0.94230    1.000
    N40      N        0.54920    0.65471    0.91877    1.000
    N41      N        0.80660    0.63244    0.96091    1.000
    N42      N        0.29650    0.67138    0.87208    1.000
    O37      O        0.52060    0.39351    0.80385    1.000
    O38      O        0.93400    0.79212    0.75817    1.000
    O39      O        0.81800    0.78083    0.82999    1.000
    O40      O        0.22340    0.38266    0.80282    1.000
    O41      O        0.08740    0.65060    0.11198    1.000
    O42      O        0.27200    0.70635    0.08101    1.000
    Ba8      Ba       0.63488    0.63979    0.28842    1.000
    C148     C        0.27770    0.53125    0.36333    1.000
    H190     H        0.39710    0.54270    0.35370    1.000
    H191     H        0.23000    0.51090    0.33770    1.000
    C149     C        0.15270    0.57543    0.37042    1.000
    H192     H        0.21300    0.59780    0.39290    1.000
    C150     C        0.97300    0.55929    0.39325    1.000
    H193     H        0.90310    0.54100    0.36980    1.000
    H194     H        0.90330    0.58810    0.40200    1.000
    C151     C        0.00100    0.52756    0.43790    1.000
    H195     H        0.88450    0.51560    0.44920    1.000
    H196     H        0.05510    0.54710    0.46320    1.000
    C152     C        0.29580    0.50071    0.40831    1.000
    H197     H        0.35970    0.51940    0.43260    1.000
    H198     H        0.36710    0.47170    0.40130    1.000
    C153     C        0.05700    0.43953    0.42269    1.000
    C154     C        0.85120    0.38072    0.44016    1.000
    C155     C        0.10140    0.36155    0.39783    1.000
    C156     C        0.55940    0.22694    0.29889    1.000
    C157     C        0.40520    0.26157    0.31086    1.000
    H199     H        0.32800    0.26470    0.28240    1.000
    C158     C        0.13310    0.60222    0.32257    1.000
    C159     C        0.34980    0.32835    0.57739    1.000
    C160     C        0.55400    0.40339    0.47378    1.000
    H200     H        0.60670    0.43600    0.47400    1.000
    H201     H        0.45770    0.40280    0.45000    1.000
    C161     C        0.47570    0.39211    0.52265    1.000
    H202     H        0.56820    0.39780    0.54680    1.000
    H203     H        0.37570    0.41440    0.52900    1.000
    C162     C        0.55820    0.30436    0.51138    1.000
    H204     H        0.51150    0.27110    0.51140    1.000
    H205     H        0.65740    0.30590    0.53430    1.000
    C163     C        0.62920    0.31676    0.46178    1.000
    H206     H        0.53310    0.31250    0.43830    1.000
    H207     H        0.72810    0.29480    0.45350    1.000
    C164     C        0.13250    0.27916    0.36286    1.000
    H208     H        0.06460    0.26790    0.39060    1.000
    H209     H        0.05040    0.28010    0.33560    1.000
    C165     C        0.47730    0.31199    0.32338    1.000
    H210     H        0.54800    0.32460    0.29670    1.000
    H211     H        0.55690    0.30960    0.35100    1.000
    C166     C        0.32260    0.34746    0.33452    1.000
    H212     H        0.25210    0.35310    0.30560    1.000
    H213     H        0.37290    0.37860    0.34470    1.000
    C167     C        0.40770    0.33956    0.52700    1.000
    H214     H        0.30300    0.33530    0.50560    1.000
    C168     C        0.28710    0.24349    0.35250    1.000
    H215     H        0.23700    0.21160    0.34460    1.000
    H216     H        0.36160    0.23990    0.38100    1.000
    N43      N        0.11930    0.48614    0.42674    1.000
    N44      N        0.16510    0.40775    0.39896    1.000
    N45      N        0.89560    0.42873    0.44230    1.000
    N46      N        0.95080    0.34529    0.41877    1.000
    N47      N        0.69340    0.36756    0.46091    1.000
    N48      N        0.20350    0.32862    0.37208    1.000
    O43      O        0.97940    0.60649    0.30385    1.000
    O44      O        0.56600    0.20788    0.25817    1.000
    O45      O        0.68200    0.21917    0.32999    1.000
    O46      O        0.27660    0.61734    0.30282    1.000
    O47      O        0.41260    0.34940    0.61198    1.000
    O48      O        0.22800    0.29365    0.58101    1.000
