# CIF file generated by openbabel 3.1.0, see https://openbabel.org
data_I
_chemical_name_common 'image0'
_cell_length_a 11.081
_cell_length_b 7.0226
_cell_length_c 6.485
_cell_angle_alpha 90
_cell_angle_beta 109.129
_cell_angle_gamma 90
_space_group_name_H-M_alt 'P 1'
_space_group_name_Hall 'P 1'
loop_
    _symmetry_equiv_pos_as_xyz
    x,y,z
loop_
    _atom_site_label
    _atom_site_type_symbol
    _atom_site_fract_x
    _atom_site_fract_y
    _atom_site_fract_z
    _atom_site_occupancy
    O1       O        0.99380    0.32910    0.66710    1.000
    O2       O        0.82930    0.37450    0.88480    1.000
    O3       O        0.65220    0.52010    0.87800    1.000
    C1       C        0.76430    0.47580    0.96570    1.000
    H1       H        0.80460    0.52230    0.10580    1.000
    O4       O        0.49380    0.82910    0.66710    1.000
    O5       O        0.32930    0.87450    0.88480    1.000
    O6       O        0.15220    0.02010    0.87800    1.000
    C2       C        0.26430    0.97580    0.96570    1.000
    H2       H        0.30460    0.02230    0.10580    1.000
    O7       O        0.00620    0.32910    0.33290    1.000
    O8       O        0.17070    0.37450    0.11520    1.000
    O9       O        0.34780    0.52010    0.12200    1.000
    C3       C        0.23570    0.47580    0.03430    1.000
    H3       H        0.19540    0.52230    0.89420    1.000
    O10      O        0.50620    0.82910    0.33290    1.000
    O11      O        0.67070    0.87450    0.11520    1.000
    O12      O        0.84780    0.02010    0.12200    1.000
    C4       C        0.73570    0.97580    0.03430    1.000
    H4       H        0.69540    0.02230    0.89420    1.000
    Lu1      Lu       0.00000    0.18130    0.00000    1.000
    Lu2      Lu       0.50000    0.68130    0.00000    1.000
    C5       C        0.00000    0.24640    0.50000    1.000
    H5       H        0.00000    0.11390    0.50000    1.000
    C6       C        0.50000    0.74640    0.50000    1.000
    H6       H        0.50000    0.61390    0.50000    1.000
