# CIF file generated by openbabel 3.1.0, see https://openbabel.org
data_I
_chemical_name_common 'image0'
_cell_length_a 19.869
_cell_length_b 19.869
_cell_length_c 27.47
_cell_angle_alpha 90
_cell_angle_beta 90
_cell_angle_gamma 120
_space_group_name_H-M_alt 'P 1'
_space_group_name_Hall 'P 1'
loop_
    _symmetry_equiv_pos_as_xyz
    x,y,z
loop_
    _atom_site_label
    _atom_site_type_symbol
    _atom_site_fract_x
    _atom_site_fract_y
    _atom_site_fract_z
    _atom_site_occupancy
    Pr1      Pr       0.48494    0.52753    0.92978    1.000
    C1       C        0.10750    0.46160    0.03050    1.000
    C2       C        0.16390    0.43760    0.04540    1.000
    C3       C        0.22920    0.45820    0.01830    1.000
    H1       H        0.23680    0.48610    0.98960    1.000
    O1       O        0.35570    0.48730    0.96290    1.000
    C4       C        0.28320    0.43930    0.03200    1.000
    C5       C        0.35460    0.46330    0.00530    1.000
    O2       O        0.41130    0.46080    0.02230    1.000
    C6       C        0.27290    0.39840    0.07480    1.000
    H2       H        0.31000    0.38640    0.08540    1.000
    O3       O        0.05460    0.45030    0.05950    1.000
    C7       C        0.20710    0.37640    0.10060    1.000
    O4       O        0.11650    0.49060    0.99100    1.000
    C8       C        0.15320    0.39720    0.08730    1.000
    H3       H        0.11000    0.38380    0.10670    1.000
    O5       O        0.18500    0.33140    0.14410    1.000
    C9       C        0.23590    0.30340    0.15930    1.000
    H4       H        0.28760    0.34640    0.16580    1.000
    H5       H        0.23940    0.27070    0.13440    1.000
    C10      C        0.14880    0.17910    0.20590    1.000
    C11      C        0.12850    0.14530    0.15610    1.000
    H6       H        0.15280    0.18600    0.13240    1.000
    H7       H        0.07310    0.11910    0.15190    1.000
    H8       H        0.14640    0.10880    0.15190    1.000
    C12      C        0.19890    0.25590    0.20630    1.000
    Pr2      Pr       0.47247    0.95741    0.92978    1.000
    C13      C        0.53840    0.64590    0.03050    1.000
    C14      C        0.56240    0.72630    0.04540    1.000
    C15      C        0.54180    0.77100    0.01830    1.000
    H9       H        0.51390    0.75070    0.98960    1.000
    O6       O        0.51270    0.86840    0.96290    1.000
    C16      C        0.56070    0.84390    0.03200    1.000
    C17      C        0.53670    0.89130    0.00530    1.000
    O7       O        0.53920    0.95050    0.02230    1.000
    C18      C        0.60160    0.87450    0.07480    1.000
    H10      H        0.61360    0.92360    0.08540    1.000
    O8       O        0.54970    0.60430    0.05950    1.000
    C19      C        0.62360    0.83070    0.10060    1.000
    O9       O        0.50940    0.62590    0.99100    1.000
    C20      C        0.60280    0.75600    0.08730    1.000
    H11      H        0.61620    0.72620    0.10670    1.000
    O10      O        0.66860    0.85360    0.14410    1.000
    C21      C        0.69660    0.93250    0.15930    1.000
    H12      H        0.65360    0.94120    0.16580    1.000
    H13      H        0.72930    0.96870    0.13440    1.000
    C22      C        0.82090    0.96970    0.20590    1.000
    C23      C        0.85470    0.98320    0.15610    1.000
    H14      H        0.81400    0.96680    0.13240    1.000
    H15      H        0.88090    0.95400    0.15190    1.000
    H16      H        0.89120    0.03760    0.15190    1.000
    C24      C        0.74410    0.94300    0.20630    1.000
    Pr3      Pr       0.04259    0.51506    0.92978    1.000
    C25      C        0.35410    0.89250    0.03050    1.000
    C26      C        0.27370    0.83610    0.04540    1.000
    C27      C        0.22900    0.77080    0.01830    1.000
    H17      H        0.24930    0.76320    0.98960    1.000
    O11      O        0.13160    0.64430    0.96290    1.000
    C28      C        0.15610    0.71680    0.03200    1.000
    C29      C        0.10870    0.64540    0.00530    1.000
    O12      O        0.04950    0.58870    0.02230    1.000
    C30      C        0.12550    0.72710    0.07480    1.000
    H18      H        0.07640    0.69000    0.08540    1.000
    O13      O        0.39570    0.94540    0.05950    1.000
    C31      C        0.16930    0.79290    0.10060    1.000
    O14      O        0.37410    0.88350    0.99100    1.000
    C32      C        0.24400    0.84680    0.08730    1.000
    H19      H        0.27380    0.89000    0.10670    1.000
    O15      O        0.14640    0.81500    0.14410    1.000
    C33      C        0.06750    0.76410    0.15930    1.000
    H20      H        0.05880    0.71240    0.16580    1.000
    H21      H        0.03130    0.76060    0.13440    1.000
    C34      C        0.03030    0.85120    0.20590    1.000
    C35      C        0.01680    0.87150    0.15610    1.000
    H22      H        0.03320    0.84720    0.13240    1.000
    H23      H        0.04600    0.92690    0.15190    1.000
    H24      H        0.96240    0.85360    0.15190    1.000
    C36      C        0.05700    0.80110    0.20630    1.000
    Pr4      Pr       0.51506    0.47247    0.42978    1.000
    C37      C        0.89250    0.53840    0.53050    1.000
    C38      C        0.83610    0.56240    0.54540    1.000
    C39      C        0.77080    0.54180    0.51830    1.000
    H25      H        0.76320    0.51390    0.48960    1.000
    O16      O        0.64430    0.51270    0.46290    1.000
    C40      C        0.71680    0.56070    0.53200    1.000
    C41      C        0.64540    0.53670    0.50530    1.000
    O17      O        0.58870    0.53920    0.52230    1.000
    C42      C        0.72710    0.60160    0.57480    1.000
    H26      H        0.69000    0.61360    0.58540    1.000
    O18      O        0.94540    0.54970    0.55950    1.000
    C43      C        0.79290    0.62360    0.60060    1.000
    O19      O        0.88350    0.50940    0.49100    1.000
    C44      C        0.84680    0.60280    0.58730    1.000
    H27      H        0.89000    0.61620    0.60670    1.000
    O20      O        0.81500    0.66860    0.64410    1.000
    C45      C        0.76410    0.69660    0.65930    1.000
    H28      H        0.71240    0.65360    0.66580    1.000
    H29      H        0.76060    0.72930    0.63440    1.000
    C46      C        0.85120    0.82090    0.70590    1.000
    C47      C        0.87150    0.85470    0.65610    1.000
    H30      H        0.84720    0.81400    0.63240    1.000
    H31      H        0.92690    0.88090    0.65190    1.000
    H32      H        0.85360    0.89120    0.65190    1.000
    C48      C        0.80110    0.74410    0.70630    1.000
    Pr5      Pr       0.52753    0.04259    0.42978    1.000
    C49      C        0.46160    0.35410    0.53050    1.000
    C50      C        0.43760    0.27370    0.54540    1.000
    C51      C        0.45820    0.22900    0.51830    1.000
    H33      H        0.48610    0.24930    0.48960    1.000
    O21      O        0.48730    0.13160    0.46290    1.000
    C52      C        0.43930    0.15610    0.53200    1.000
    C53      C        0.46330    0.10870    0.50530    1.000
    O22      O        0.46080    0.04950    0.52230    1.000
    C54      C        0.39840    0.12550    0.57480    1.000
    H34      H        0.38640    0.07640    0.58540    1.000
    O23      O        0.45030    0.39570    0.55950    1.000
    C55      C        0.37640    0.16930    0.60060    1.000
    O24      O        0.49060    0.37410    0.49100    1.000
    C56      C        0.39720    0.24400    0.58730    1.000
    H35      H        0.38380    0.27380    0.60670    1.000
    O25      O        0.33140    0.14640    0.64410    1.000
    C57      C        0.30340    0.06750    0.65930    1.000
    H36      H        0.34640    0.05880    0.66580    1.000
    H37      H        0.27070    0.03130    0.63440    1.000
    C58      C        0.17910    0.03030    0.70590    1.000
    C59      C        0.14530    0.01680    0.65610    1.000
    H38      H        0.18600    0.03320    0.63240    1.000
    H39      H        0.11910    0.04600    0.65190    1.000
    H40      H        0.10880    0.96240    0.65190    1.000
    C60      C        0.25590    0.05700    0.70630    1.000
    Pr6      Pr       0.95741    0.48494    0.42978    1.000
    C61      C        0.64590    0.10750    0.53050    1.000
    C62      C        0.72630    0.16390    0.54540    1.000
    C63      C        0.77100    0.22920    0.51830    1.000
    H41      H        0.75070    0.23680    0.48960    1.000
    O26      O        0.86840    0.35570    0.46290    1.000
    C64      C        0.84390    0.28320    0.53200    1.000
    C65      C        0.89130    0.35460    0.50530    1.000
    O27      O        0.95050    0.41130    0.52230    1.000
    C66      C        0.87450    0.27290    0.57480    1.000
    H42      H        0.92360    0.31000    0.58540    1.000
    O28      O        0.60430    0.05460    0.55950    1.000
    C67      C        0.83070    0.20710    0.60060    1.000
    O29      O        0.62590    0.11650    0.49100    1.000
    C68      C        0.75600    0.15320    0.58730    1.000
    H43      H        0.72620    0.11000    0.60670    1.000
    O30      O        0.85360    0.18500    0.64410    1.000
    C69      C        0.93250    0.23590    0.65930    1.000
    H44      H        0.94120    0.28760    0.66580    1.000
    H45      H        0.96870    0.23940    0.63440    1.000
    C70      C        0.96970    0.14880    0.70590    1.000
    C71      C        0.98320    0.12850    0.65610    1.000
    H46      H        0.96680    0.15280    0.63240    1.000
    H47      H        0.95400    0.07310    0.65190    1.000
    H48      H        0.03760    0.14640    0.65190    1.000
    C72      C        0.94300    0.19890    0.70630    1.000
    Pr7      Pr       0.51506    0.47247    0.07022    1.000
    C73      C        0.89250    0.53840    0.96950    1.000
    C74      C        0.83610    0.56240    0.95460    1.000
    C75      C        0.77080    0.54180    0.98170    1.000
    H49      H        0.76320    0.51390    0.01040    1.000
    O31      O        0.64430    0.51270    0.03710    1.000
    C76      C        0.71680    0.56070    0.96800    1.000
    C77      C        0.64540    0.53670    0.99470    1.000
    O32      O        0.58870    0.53920    0.97770    1.000
    C78      C        0.72710    0.60160    0.92520    1.000
    H50      H        0.69000    0.61360    0.91460    1.000
    O33      O        0.94540    0.54970    0.94050    1.000
    C79      C        0.79290    0.62360    0.89940    1.000
    O34      O        0.88350    0.50940    0.00900    1.000
    C80      C        0.84680    0.60280    0.91270    1.000
    H51      H        0.89000    0.61620    0.89330    1.000
    O35      O        0.81500    0.66860    0.85590    1.000
    C81      C        0.76410    0.69660    0.84070    1.000
    H52      H        0.71240    0.65360    0.83420    1.000
    H53      H        0.76060    0.72930    0.86560    1.000
    C82      C        0.85120    0.82090    0.79410    1.000
    C83      C        0.87150    0.85470    0.84390    1.000
    H54      H        0.84720    0.81400    0.86760    1.000
    H55      H        0.92690    0.88090    0.84810    1.000
    H56      H        0.85360    0.89120    0.84810    1.000
    C84      C        0.80110    0.74410    0.79370    1.000
    Pr8      Pr       0.52753    0.04259    0.07022    1.000
    C85      C        0.46160    0.35410    0.96950    1.000
    C86      C        0.43760    0.27370    0.95460    1.000
    C87      C        0.45820    0.22900    0.98170    1.000
    H57      H        0.48610    0.24930    0.01040    1.000
    O36      O        0.48730    0.13160    0.03710    1.000
    C88      C        0.43930    0.15610    0.96800    1.000
    C89      C        0.46330    0.10870    0.99470    1.000
    O37      O        0.46080    0.04950    0.97770    1.000
    C90      C        0.39840    0.12550    0.92520    1.000
    H58      H        0.38640    0.07640    0.91460    1.000
    O38      O        0.45030    0.39570    0.94050    1.000
    C91      C        0.37640    0.16930    0.89940    1.000
    O39      O        0.49060    0.37410    0.00900    1.000
    C92      C        0.39720    0.24400    0.91270    1.000
    H59      H        0.38380    0.27380    0.89330    1.000
    O40      O        0.33140    0.14640    0.85590    1.000
    C93      C        0.30340    0.06750    0.84070    1.000
    H60      H        0.34640    0.05880    0.83420    1.000
    H61      H        0.27070    0.03130    0.86560    1.000
    C94      C        0.17910    0.03030    0.79410    1.000
    C95      C        0.14530    0.01680    0.84390    1.000
    H62      H        0.18600    0.03320    0.86760    1.000
    H63      H        0.11910    0.04600    0.84810    1.000
    H64      H        0.10880    0.96240    0.84810    1.000
    C96      C        0.25590    0.05700    0.79370    1.000
    Pr9      Pr       0.95741    0.48494    0.07022    1.000
    C97      C        0.64590    0.10750    0.96950    1.000
    C98      C        0.72630    0.16390    0.95460    1.000
    C99      C        0.77100    0.22920    0.98170    1.000
    H65      H        0.75070    0.23680    0.01040    1.000
    O41      O        0.86840    0.35570    0.03710    1.000
    C100     C        0.84390    0.28320    0.96800    1.000
    C101     C        0.89130    0.35460    0.99470    1.000
    O42      O        0.95050    0.41130    0.97770    1.000
    C102     C        0.87450    0.27290    0.92520    1.000
    H66      H        0.92360    0.31000    0.91460    1.000
    O43      O        0.60430    0.05460    0.94050    1.000
    C103     C        0.83070    0.20710    0.89940    1.000
    O44      O        0.62590    0.11650    0.00900    1.000
    C104     C        0.75600    0.15320    0.91270    1.000
    H67      H        0.72620    0.11000    0.89330    1.000
    O45      O        0.85360    0.18500    0.85590    1.000
    C105     C        0.93250    0.23590    0.84070    1.000
    H68      H        0.94120    0.28760    0.83420    1.000
    H69      H        0.96870    0.23940    0.86560    1.000
    C106     C        0.96970    0.14880    0.79410    1.000
    C107     C        0.98320    0.12850    0.84390    1.000
    H70      H        0.96680    0.15280    0.86760    1.000
    H71      H        0.95400    0.07310    0.84810    1.000
    H72      H        0.03760    0.14640    0.84810    1.000
    C108     C        0.94300    0.19890    0.79370    1.000
    Pr10     Pr       0.48494    0.52753    0.57022    1.000
    C109     C        0.10750    0.46160    0.46950    1.000
    C110     C        0.16390    0.43760    0.45460    1.000
    C111     C        0.22920    0.45820    0.48170    1.000
    H73      H        0.23680    0.48610    0.51040    1.000
    O46      O        0.35570    0.48730    0.53710    1.000
    C112     C        0.28320    0.43930    0.46800    1.000
    C113     C        0.35460    0.46330    0.49470    1.000
    O47      O        0.41130    0.46080    0.47770    1.000
    C114     C        0.27290    0.39840    0.42520    1.000
    H74      H        0.31000    0.38640    0.41460    1.000
    O48      O        0.05460    0.45030    0.44050    1.000
    C115     C        0.20710    0.37640    0.39940    1.000
    O49      O        0.11650    0.49060    0.50900    1.000
    C116     C        0.15320    0.39720    0.41270    1.000
    H75      H        0.11000    0.38380    0.39330    1.000
    O50      O        0.18500    0.33140    0.35590    1.000
    C117     C        0.23590    0.30340    0.34070    1.000
    H76      H        0.28760    0.34640    0.33420    1.000
    H77      H        0.23940    0.27070    0.36560    1.000
    C118     C        0.14880    0.17910    0.29410    1.000
    C119     C        0.12850    0.14530    0.34390    1.000
    H78      H        0.15280    0.18600    0.36760    1.000
    H79      H        0.07310    0.11910    0.34810    1.000
    H80      H        0.14640    0.10880    0.34810    1.000
    C120     C        0.19890    0.25590    0.29370    1.000
    Pr11     Pr       0.47247    0.95741    0.57022    1.000
    C121     C        0.53840    0.64590    0.46950    1.000
    C122     C        0.56240    0.72630    0.45460    1.000
    C123     C        0.54180    0.77100    0.48170    1.000
    H81      H        0.51390    0.75070    0.51040    1.000
    O51      O        0.51270    0.86840    0.53710    1.000
    C124     C        0.56070    0.84390    0.46800    1.000
    C125     C        0.53670    0.89130    0.49470    1.000
    O52      O        0.53920    0.95050    0.47770    1.000
    C126     C        0.60160    0.87450    0.42520    1.000
    H82      H        0.61360    0.92360    0.41460    1.000
    O53      O        0.54970    0.60430    0.44050    1.000
    C127     C        0.62360    0.83070    0.39940    1.000
    O54      O        0.50940    0.62590    0.50900    1.000
    C128     C        0.60280    0.75600    0.41270    1.000
    H83      H        0.61620    0.72620    0.39330    1.000
    O55      O        0.66860    0.85360    0.35590    1.000
    C129     C        0.69660    0.93250    0.34070    1.000
    H84      H        0.65360    0.94120    0.33420    1.000
    H85      H        0.72930    0.96870    0.36560    1.000
    C130     C        0.82090    0.96970    0.29410    1.000
    C131     C        0.85470    0.98320    0.34390    1.000
    H86      H        0.81400    0.96680    0.36760    1.000
    H87      H        0.88090    0.95400    0.34810    1.000
    H88      H        0.89120    0.03760    0.34810    1.000
    C132     C        0.74410    0.94300    0.29370    1.000
    Pr12     Pr       0.04259    0.51506    0.57022    1.000
    C133     C        0.35410    0.89250    0.46950    1.000
    C134     C        0.27370    0.83610    0.45460    1.000
    C135     C        0.22900    0.77080    0.48170    1.000
    H89      H        0.24930    0.76320    0.51040    1.000
    O56      O        0.13160    0.64430    0.53710    1.000
    C136     C        0.15610    0.71680    0.46800    1.000
    C137     C        0.10870    0.64540    0.49470    1.000
    O57      O        0.04950    0.58870    0.47770    1.000
    C138     C        0.12550    0.72710    0.42520    1.000
    H90      H        0.07640    0.69000    0.41460    1.000
    O58      O        0.39570    0.94540    0.44050    1.000
    C139     C        0.16930    0.79290    0.39940    1.000
    O59      O        0.37410    0.88350    0.50900    1.000
    C140     C        0.24400    0.84680    0.41270    1.000
    H91      H        0.27380    0.89000    0.39330    1.000
    O60      O        0.14640    0.81500    0.35590    1.000
    C141     C        0.06750    0.76410    0.34070    1.000
    H92      H        0.05880    0.71240    0.33420    1.000
    H93      H        0.03130    0.76060    0.36560    1.000
    C142     C        0.03030    0.85120    0.29410    1.000
    C143     C        0.01680    0.87150    0.34390    1.000
    H94      H        0.03320    0.84720    0.36760    1.000
    H95      H        0.04600    0.92690    0.34810    1.000
    H96      H        0.96240    0.85360    0.34810    1.000
    C144     C        0.05700    0.80110    0.29370    1.000
    C145     C        0.12720    0.14470    0.25000    1.000
    C146     C        0.22390    0.30250    0.25000    1.000
    C147     C        0.85530    0.98250    0.25000    1.000
    C148     C        0.69750    0.92140    0.25000    1.000
    C149     C        0.01750    0.87280    0.25000    1.000
    C150     C        0.07860    0.77610    0.25000    1.000
    C151     C        0.87280    0.85530    0.75000    1.000
    C152     C        0.77610    0.69750    0.75000    1.000
    C153     C        0.14470    0.01750    0.75000    1.000
    C154     C        0.30250    0.07860    0.75000    1.000
    C155     C        0.98250    0.12720    0.75000    1.000
    C156     C        0.92140    0.22390    0.75000    1.000
