# CIF file generated by openbabel 3.1.0, see https://openbabel.org
data_I
_chemical_name_common 'image0'
_cell_length_a 27.768
_cell_length_b 7.9
_cell_length_c 18.298
_cell_angle_alpha 90
_cell_angle_beta 108.329
_cell_angle_gamma 90
_space_group_name_H-M_alt 'P 1'
_space_group_name_Hall 'P 1'
loop_
    _symmetry_equiv_pos_as_xyz
    x,y,z
loop_
    _atom_site_label
    _atom_site_type_symbol
    _atom_site_fract_x
    _atom_site_fract_y
    _atom_site_fract_z
    _atom_site_occupancy
    Zn1      Zn       0.04098    0.17319    0.19715    1.000
    C1       C        0.08892    0.09000    0.97785    1.000
    H1       H        0.05650    0.06010    0.97780    1.000
    O1       O        0.02387    0.94390    0.84830    1.000
    O2       O        0.08269    0.94460    0.78870    1.000
    C2       C        0.06728    0.97670    0.84495    1.000
    C3       C        0.10345    0.05920    0.91342    1.000
    N1       N        0.23368    0.22260    0.97251    1.000
    C4       C        0.15197    0.10340    0.91352    1.000
    H2       H        0.16230    0.08260    0.87060    1.000
    O3       O        0.06231    0.14760    0.10822    1.000
    C5       C        0.12245    0.16550    0.04284    1.000
    C6       C        0.18484    0.17920    0.97884    1.000
    O4       O        0.02830    0.40520    0.21866    1.000
    C7       C        0.17062    0.21110    0.04299    1.000
    H3       H        0.19310    0.26270    0.08600    1.000
    O5       O        0.13526    0.26550    0.16989    1.000
    C8       C        0.10667    0.19700    0.11288    1.000
    Zn2      Zn       0.54098    0.67319    0.19715    1.000
    C9       C        0.58892    0.59000    0.97785    1.000
    H4       H        0.55650    0.56010    0.97780    1.000
    O6       O        0.52387    0.44390    0.84830    1.000
    O7       O        0.58269    0.44460    0.78870    1.000
    C10      C        0.56728    0.47670    0.84495    1.000
    C11      C        0.60345    0.55920    0.91342    1.000
    N2       N        0.73368    0.72260    0.97251    1.000
    C12      C        0.65197    0.60340    0.91352    1.000
    H5       H        0.66230    0.58260    0.87060    1.000
    O8       O        0.56231    0.64760    0.10822    1.000
    C13      C        0.62245    0.66550    0.04284    1.000
    C14      C        0.68484    0.67920    0.97884    1.000
    O9       O        0.52830    0.90520    0.21866    1.000
    C15      C        0.67062    0.71110    0.04299    1.000
    H6       H        0.69310    0.76270    0.08600    1.000
    O10      O        0.63526    0.76550    0.16989    1.000
    C16      C        0.60667    0.69700    0.11288    1.000
    Zn3      Zn       0.95902    0.17319    0.30285    1.000
    C17      C        0.91108    0.09000    0.52215    1.000
    H7       H        0.94350    0.06010    0.52220    1.000
    O11      O        0.97613    0.94390    0.65170    1.000
    O12      O        0.91731    0.94460    0.71130    1.000
    C18      C        0.93272    0.97670    0.65505    1.000
    C19      C        0.89655    0.05920    0.58658    1.000
    N3       N        0.76632    0.22260    0.52749    1.000
    C20      C        0.84803    0.10340    0.58648    1.000
    H8       H        0.83770    0.08260    0.62940    1.000
    O13      O        0.93769    0.14760    0.39178    1.000
    C21      C        0.87755    0.16550    0.45716    1.000
    C22      C        0.81516    0.17920    0.52116    1.000
    O14      O        0.97170    0.40520    0.28134    1.000
    C23      C        0.82938    0.21110    0.45701    1.000
    H9       H        0.80690    0.26270    0.41400    1.000
    O15      O        0.86474    0.26550    0.33011    1.000
    C24      C        0.89333    0.19700    0.38712    1.000
    Zn4      Zn       0.45902    0.67319    0.30285    1.000
    C25      C        0.41108    0.59000    0.52215    1.000
    H10      H        0.44350    0.56010    0.52220    1.000
    O16      O        0.47613    0.44390    0.65170    1.000
    O17      O        0.41731    0.44460    0.71130    1.000
    C26      C        0.43272    0.47670    0.65505    1.000
    C27      C        0.39655    0.55920    0.58658    1.000
    N4       N        0.26632    0.72260    0.52749    1.000
    C28      C        0.34803    0.60340    0.58648    1.000
    H11      H        0.33770    0.58260    0.62940    1.000
    O18      O        0.43769    0.64760    0.39178    1.000
    C29      C        0.37755    0.66550    0.45716    1.000
    C30      C        0.31516    0.67920    0.52116    1.000
    O19      O        0.47170    0.90520    0.28134    1.000
    C31      C        0.32938    0.71110    0.45701    1.000
    H12      H        0.30690    0.76270    0.41400    1.000
    O20      O        0.36474    0.76550    0.33011    1.000
    C32      C        0.39333    0.69700    0.38712    1.000
    Zn5      Zn       0.95902    0.82681    0.80285    1.000
    C33      C        0.91108    0.91000    0.02215    1.000
    H13      H        0.94350    0.93990    0.02220    1.000
    O21      O        0.97613    0.05610    0.15170    1.000
    O22      O        0.91731    0.05540    0.21130    1.000
    C34      C        0.93272    0.02330    0.15505    1.000
    C35      C        0.89655    0.94080    0.08658    1.000
    N5       N        0.76632    0.77740    0.02749    1.000
    C36      C        0.84803    0.89660    0.08648    1.000
    H14      H        0.83770    0.91740    0.12940    1.000
    O23      O        0.93769    0.85240    0.89178    1.000
    C37      C        0.87755    0.83450    0.95716    1.000
    C38      C        0.81516    0.82080    0.02116    1.000
    O24      O        0.97170    0.59480    0.78134    1.000
    C39      C        0.82938    0.78890    0.95701    1.000
    H15      H        0.80690    0.73730    0.91400    1.000
    O25      O        0.86474    0.73450    0.83011    1.000
    C40      C        0.89333    0.80300    0.88712    1.000
    Zn6      Zn       0.45902    0.32681    0.80285    1.000
    C41      C        0.41108    0.41000    0.02215    1.000
    H16      H        0.44350    0.43990    0.02220    1.000
    O26      O        0.47613    0.55610    0.15170    1.000
    O27      O        0.41731    0.55540    0.21130    1.000
    C42      C        0.43272    0.52330    0.15505    1.000
    C43      C        0.39655    0.44080    0.08658    1.000
    N6       N        0.26632    0.27740    0.02749    1.000
    C44      C        0.34803    0.39660    0.08648    1.000
    H17      H        0.33770    0.41740    0.12940    1.000
    O28      O        0.43769    0.35240    0.89178    1.000
    C45      C        0.37755    0.33450    0.95716    1.000
    C46      C        0.31516    0.32080    0.02116    1.000
    O29      O        0.47170    0.09480    0.78134    1.000
    C47      C        0.32938    0.28890    0.95701    1.000
    H18      H        0.30690    0.23730    0.91400    1.000
    O30      O        0.36474    0.23450    0.83011    1.000
    C48      C        0.39333    0.30300    0.88712    1.000
    Zn7      Zn       0.04098    0.82681    0.69715    1.000
    C49      C        0.08892    0.91000    0.47785    1.000
    H19      H        0.05650    0.93990    0.47780    1.000
    O31      O        0.02387    0.05610    0.34830    1.000
    O32      O        0.08269    0.05540    0.28870    1.000
    C50      C        0.06728    0.02330    0.34495    1.000
    C51      C        0.10345    0.94080    0.41342    1.000
    N7       N        0.23368    0.77740    0.47251    1.000
    C52      C        0.15197    0.89660    0.41352    1.000
    H20      H        0.16230    0.91740    0.37060    1.000
    O33      O        0.06231    0.85240    0.60822    1.000
    C53      C        0.12245    0.83450    0.54284    1.000
    C54      C        0.18484    0.82080    0.47884    1.000
    O34      O        0.02830    0.59480    0.71866    1.000
    C55      C        0.17062    0.78890    0.54299    1.000
    H21      H        0.19310    0.73730    0.58600    1.000
    O35      O        0.13526    0.73450    0.66989    1.000
    C56      C        0.10667    0.80300    0.61288    1.000
    Zn8      Zn       0.54098    0.32681    0.69715    1.000
    C57      C        0.58892    0.41000    0.47785    1.000
    H22      H        0.55650    0.43990    0.47780    1.000
    O36      O        0.52387    0.55610    0.34830    1.000
    O37      O        0.58269    0.55540    0.28870    1.000
    C58      C        0.56728    0.52330    0.34495    1.000
    C59      C        0.60345    0.44080    0.41342    1.000
    N8       N        0.73368    0.27740    0.47251    1.000
    C60      C        0.65197    0.39660    0.41352    1.000
    H23      H        0.66230    0.41740    0.37060    1.000
    O38      O        0.56231    0.35240    0.60822    1.000
    C61      C        0.62245    0.33450    0.54284    1.000
    C62      C        0.68484    0.32080    0.47884    1.000
    O39      O        0.52830    0.09480    0.71866    1.000
    C63      C        0.67062    0.28890    0.54299    1.000
    H24      H        0.69310    0.23730    0.58600    1.000
    O40      O        0.63526    0.23450    0.66989    1.000
    C64      C        0.60667    0.30300    0.61288    1.000
    N9       N        0.00000    0.47490    0.25000    1.000
    O41      O        0.00000    0.66630    0.25000    1.000
    N10      N        0.50000    0.97490    0.25000    1.000
    O42      O        0.50000    0.16630    0.25000    1.000
    N11      N        0.00000    0.52510    0.75000    1.000
    O43      O        0.00000    0.33370    0.75000    1.000
    N12      N        0.50000    0.02510    0.75000    1.000
    O44      O        0.50000    0.83370    0.75000    1.000
