# CIF file generated by openbabel 3.1.0, see https://openbabel.org
data_I
_chemical_name_common 'image0'
_cell_length_a 9.638
_cell_length_b 20.5979
_cell_length_c 10.4207
_cell_angle_alpha 90
_cell_angle_beta 95.034
_cell_angle_gamma 90
_space_group_name_H-M_alt 'P 1'
_space_group_name_Hall 'P 1'
loop_
    _symmetry_equiv_pos_as_xyz
    x,y,z
loop_
    _atom_site_label
    _atom_site_type_symbol
    _atom_site_fract_x
    _atom_site_fract_y
    _atom_site_fract_z
    _atom_site_occupancy
    Zn1      Zn       0.17007    0.30740    0.36014    1.000
    Zn2      Zn       0.69379    0.45704    0.59123    1.000
    Zn3      Zn       0.92422    0.42964    0.12006    1.000
    P1       P        0.06112    0.29241    0.05967    1.000
    H1       H        0.97100    0.24370    0.08000    1.000
    P2       P        0.43148    0.39996    0.43668    1.000
    H2       H        0.47500    0.41710    0.32600    1.000
    P3       P        0.78878    0.49864    0.87175    1.000
    H3       H        0.73200    0.55740    0.86800    1.000
    P4       P        0.88514    0.38787    0.40393    1.000
    H4       H        0.81000    0.33550    0.41500    1.000
    O1       O        0.97760    0.35326    0.03650    1.000
    O2       O        0.15970    0.29428    0.17830    1.000
    O3       O        0.13340    0.27431    0.94189    1.000
    O4       O        0.35580    0.33635    0.41890    1.000
    O5       O        0.33790    0.45546    0.47220    1.000
    O6       O        0.55740    0.39255    0.53300    1.000
    O7       O        0.69890    0.45588    0.77826    1.000
    O8       O        0.78320    0.47472    0.00785    1.000
    O9       O        0.93410    0.50605    0.82964    1.000
    O10      O        0.86380    0.43175    0.51850    1.000
    O11      O        0.03600    0.36926    0.41130    1.000
    O12      O        0.83030    0.41805    0.27770    1.000
    Zn4      Zn       0.82993    0.80740    0.13986    1.000
    Zn5      Zn       0.30621    0.95704    0.90877    1.000
    Zn6      Zn       0.07578    0.92964    0.37994    1.000
    P5       P        0.93888    0.79241    0.44033    1.000
    H5       H        0.02900    0.74370    0.42000    1.000
    P6       P        0.56852    0.89996    0.06332    1.000
    H6       H        0.52500    0.91710    0.17400    1.000
    P7       P        0.21122    0.99864    0.62825    1.000
    H7       H        0.26800    0.05740    0.63200    1.000
    P8       P        0.11486    0.88787    0.09607    1.000
    H8       H        0.19000    0.83550    0.08500    1.000
    O13      O        0.02240    0.85326    0.46350    1.000
    O14      O        0.84030    0.79428    0.32170    1.000
    O15      O        0.86660    0.77431    0.55811    1.000
    O16      O        0.64420    0.83635    0.08110    1.000
    O17      O        0.66210    0.95546    0.02780    1.000
    O18      O        0.44260    0.89255    0.96700    1.000
    O19      O        0.30110    0.95588    0.72174    1.000
    O20      O        0.21680    0.97472    0.49215    1.000
    O21      O        0.06590    0.00605    0.67036    1.000
    O22      O        0.13620    0.93175    0.98150    1.000
    O23      O        0.96400    0.86926    0.08870    1.000
    O24      O        0.16970    0.91805    0.22230    1.000
    Zn7      Zn       0.82993    0.69260    0.63986    1.000
    Zn8      Zn       0.30621    0.54296    0.40877    1.000
    Zn9      Zn       0.07578    0.57036    0.87994    1.000
    P9       P        0.93888    0.70759    0.94033    1.000
    H9       H        0.02900    0.75630    0.92000    1.000
    P10      P        0.56852    0.60004    0.56332    1.000
    H10      H        0.52500    0.58290    0.67400    1.000
    P11      P        0.21122    0.50136    0.12825    1.000
    H11      H        0.26800    0.44260    0.13200    1.000
    P12      P        0.11486    0.61213    0.59607    1.000
    H12      H        0.19000    0.66450    0.58500    1.000
    O25      O        0.02240    0.64674    0.96350    1.000
    O26      O        0.84030    0.70572    0.82170    1.000
    O27      O        0.86660    0.72569    0.05811    1.000
    O28      O        0.64420    0.66365    0.58110    1.000
    O29      O        0.66210    0.54454    0.52780    1.000
    O30      O        0.44260    0.60745    0.46700    1.000
    O31      O        0.30110    0.54412    0.22174    1.000
    O32      O        0.21680    0.52528    0.99215    1.000
    O33      O        0.06590    0.49395    0.17036    1.000
    O34      O        0.13620    0.56825    0.48150    1.000
    O35      O        0.96400    0.63074    0.58870    1.000
    O36      O        0.16970    0.58195    0.72230    1.000
    Zn10     Zn       0.17007    0.19260    0.86014    1.000
    Zn11     Zn       0.69379    0.04296    0.09123    1.000
    Zn12     Zn       0.92422    0.07036    0.62006    1.000
    P13      P        0.06112    0.20759    0.55967    1.000
    H13      H        0.97100    0.25630    0.58000    1.000
    P14      P        0.43148    0.10004    0.93668    1.000
    H14      H        0.47500    0.08290    0.82600    1.000
    P15      P        0.78878    0.00136    0.37175    1.000
    H15      H        0.73200    0.94260    0.36800    1.000
    P16      P        0.88514    0.11213    0.90393    1.000
    H16      H        0.81000    0.16450    0.91500    1.000
    O37      O        0.97760    0.14674    0.53650    1.000
    O38      O        0.15970    0.20572    0.67830    1.000
    O39      O        0.13340    0.22569    0.44189    1.000
    O40      O        0.35580    0.16365    0.91890    1.000
    O41      O        0.33790    0.04454    0.97220    1.000
    O42      O        0.55740    0.10745    0.03300    1.000
    O43      O        0.69890    0.04412    0.27826    1.000
    O44      O        0.78320    0.02528    0.50785    1.000
    O45      O        0.93410    0.99395    0.32964    1.000
    O46      O        0.86380    0.06825    0.01850    1.000
    O47      O        0.03600    0.13074    0.91130    1.000
    O48      O        0.83030    0.08195    0.77770    1.000
