# CIF file generated by openbabel 3.1.0, see https://openbabel.org
data_I
_chemical_name_common 'image0'
_cell_length_a 18.618
_cell_length_b 11.259
_cell_length_c 19.86
_cell_angle_alpha 90
_cell_angle_beta 114.96
_cell_angle_gamma 90
_space_group_name_H-M_alt 'P 1'
_space_group_name_Hall 'P 1'
loop_
    _symmetry_equiv_pos_as_xyz
    x,y,z
loop_
    _atom_site_label
    _atom_site_type_symbol
    _atom_site_fract_x
    _atom_site_fract_y
    _atom_site_fract_z
    _atom_site_occupancy
    Ni1      Ni       0.42077    0.55016    0.04874    1.000
    O1       O        0.37210    0.55426    0.93806    1.000
    O2       O        0.46003    0.44311    0.91572    1.000
    O3       O        0.30982    0.45463    0.56227    1.000
    O4       O        0.42838    0.45053    0.65604    1.000
    O5       O        0.10746    0.58890    0.74605    1.000
    O6       O        0.07839    0.55920    0.62639    1.000
    C1       C        0.34216    0.50240    0.81462    1.000
    C2       C        0.37109    0.47640    0.76221    1.000
    H1       H        0.42520    0.45540    0.77780    1.000
    C3       C        0.32036    0.48120    0.68634    1.000
    C4       C        0.23987    0.50880    0.66370    1.000
    H2       H        0.20530    0.51020    0.61230    1.000
    C5       C        0.20990    0.53440    0.71635    1.000
    C6       C        0.26245    0.53180    0.79138    1.000
    H3       H        0.24340    0.55060    0.82760    1.000
    C7       C        0.39654    0.49960    0.89566    1.000
    C8       C        0.35470    0.46040    0.63226    1.000
    C9       C        0.12580    0.56280    0.69415    1.000
    N1       N        0.41878    0.36560    0.05052    1.000
    N2       N        0.42062    0.73410    0.04829    1.000
    C10      C        0.36300    0.30280    0.99468    1.000
    H4       H        0.32310    0.34520    0.95520    1.000
    C11      C        0.36140    0.18130    0.99232    1.000
    H5       H        0.32100    0.14130    0.95190    1.000
    C12      C        0.41950    0.11590    0.04982    1.000
    C13      C        0.47540    0.17950    0.10688    1.000
    H6       H        0.51580    0.13940    0.14720    1.000
    C14      C        0.47240    0.30370    0.10533    1.000
    H7       H        0.51100    0.34590    0.14590    1.000
    C15      C        0.48280    0.79800    0.08910    1.000
    H8       H        0.53030    0.75750    0.11930    1.000
    C16      C        0.48340    0.91960    0.09060    1.000
    H9       H        0.53070    0.95910    0.12240    1.000
    C17      C        0.35410    0.91840    0.00290    1.000
    H10      H        0.30710    0.95730    0.97010    1.000
    C18      C        0.35750    0.79470    0.00480    1.000
    H11      H        0.31180    0.75180    0.97300    1.000
    C19      C        0.41990    0.98550    0.04919    1.000
    C20      C        0.93400    0.34310    0.71450    1.000
    H12      H        0.88610    0.38580    0.68880    1.000
    C21      C        0.93110    0.22240    0.71270    1.000
    H13      H        0.88200    0.18320    0.68600    1.000
    C22      C        0.93700    0.83930    0.70850    1.000
    H14      H        0.89000    0.79780    0.67800    1.000
    C23      C        0.93520    0.96150    0.70680    1.000
    H15      H        0.88820    0.00170    0.67510    1.000
    C24      C        0.45220    0.79750    0.11010    1.000
    H16      H        0.47410    0.75510    0.15570    1.000
    C25      C        0.45590    0.91800    0.11380    1.000
    H17      H        0.48300    0.95640    0.16040    1.000
    C26      C        0.39600    0.92220    0.98570    1.000
    H18      H        0.38050    0.96290    0.93980    1.000
    C27      C        0.39200    0.80110    0.98590    1.000
    H19      H        0.36880    0.76150    0.93940    1.000
    C28      C        0.99540    0.33590    0.80540    1.000
    H20      H        0.99150    0.37670    0.84560    1.000
    C29      C        0.99590    0.21550    0.80770    1.000
    H21      H        0.99350    0.17430    0.84840    1.000
    C30      C        0.98850    0.83630    0.80200    1.000
    H22      H        0.97910    0.79420    0.83900    1.000
    C31      C        0.98980    0.95520    0.80350    1.000
    H23      H        0.98350    0.99440    0.84300    1.000
    Ni2      Ni       0.57923    0.55016    0.45126    1.000
    O7       O        0.62790    0.55426    0.56194    1.000
    O8       O        0.53997    0.44311    0.58428    1.000
    O9       O        0.69018    0.45463    0.93773    1.000
    O10      O        0.57162    0.45053    0.84396    1.000
    O11      O        0.89254    0.58890    0.75395    1.000
    O12      O        0.92161    0.55920    0.87361    1.000
    C32      C        0.65784    0.50240    0.68538    1.000
    C33      C        0.62891    0.47640    0.73779    1.000
    H24      H        0.57480    0.45540    0.72220    1.000
    C34      C        0.67964    0.48120    0.81366    1.000
    C35      C        0.76013    0.50880    0.83630    1.000
    H25      H        0.79470    0.51020    0.88770    1.000
    C36      C        0.79010    0.53440    0.78365    1.000
    C37      C        0.73755    0.53180    0.70862    1.000
    H26      H        0.75660    0.55060    0.67240    1.000
    C38      C        0.60346    0.49960    0.60434    1.000
    C39      C        0.64530    0.46040    0.86774    1.000
    C40      C        0.87420    0.56280    0.80585    1.000
    N3       N        0.58122    0.36560    0.44948    1.000
    N4       N        0.57938    0.73410    0.45171    1.000
    C41      C        0.63700    0.30280    0.50532    1.000
    H27      H        0.67690    0.34520    0.54480    1.000
    C42      C        0.63860    0.18130    0.50768    1.000
    H28      H        0.67900    0.14130    0.54810    1.000
    C43      C        0.58050    0.11590    0.45018    1.000
    C44      C        0.52460    0.17950    0.39312    1.000
    H29      H        0.48420    0.13940    0.35280    1.000
    C45      C        0.52760    0.30370    0.39467    1.000
    H30      H        0.48900    0.34590    0.35410    1.000
    C46      C        0.51720    0.79800    0.41090    1.000
    H31      H        0.46970    0.75750    0.38070    1.000
    C47      C        0.51660    0.91960    0.40940    1.000
    H32      H        0.46930    0.95910    0.37760    1.000
    C48      C        0.64590    0.91840    0.49710    1.000
    H33      H        0.69290    0.95730    0.52990    1.000
    C49      C        0.64250    0.79470    0.49520    1.000
    H34      H        0.68820    0.75180    0.52700    1.000
    C50      C        0.58010    0.98550    0.45081    1.000
    C51      C        0.06600    0.34310    0.78550    1.000
    H35      H        0.11390    0.38580    0.81120    1.000
    C52      C        0.06890    0.22240    0.78730    1.000
    H36      H        0.11800    0.18320    0.81400    1.000
    C53      C        0.06300    0.83930    0.79150    1.000
    H37      H        0.11000    0.79780    0.82200    1.000
    C54      C        0.06480    0.96150    0.79320    1.000
    H38      H        0.11180    0.00170    0.82490    1.000
    C55      C        0.54780    0.79750    0.38990    1.000
    H39      H        0.52590    0.75510    0.34430    1.000
    C56      C        0.54410    0.91800    0.38620    1.000
    H40      H        0.51700    0.95640    0.33960    1.000
    C57      C        0.60400    0.92220    0.51430    1.000
    H41      H        0.61950    0.96290    0.56020    1.000
    C58      C        0.60800    0.80110    0.51410    1.000
    H42      H        0.63120    0.76150    0.56060    1.000
    C59      C        0.00460    0.33590    0.69460    1.000
    H43      H        0.00850    0.37670    0.65440    1.000
    C60      C        0.00410    0.21550    0.69230    1.000
    H44      H        0.00650    0.17430    0.65160    1.000
    C61      C        0.01150    0.83630    0.69800    1.000
    H45      H        0.02090    0.79420    0.66100    1.000
    C62      C        0.01020    0.95520    0.69650    1.000
    H46      H        0.01650    0.99440    0.65700    1.000
    Ni3      Ni       0.57923    0.44984    0.95126    1.000
    O13      O        0.62790    0.44574    0.06194    1.000
    O14      O        0.53997    0.55689    0.08428    1.000
    O15      O        0.69018    0.54537    0.43773    1.000
    O16      O        0.57162    0.54947    0.34396    1.000
    O17      O        0.89254    0.41110    0.25395    1.000
    O18      O        0.92161    0.44080    0.37361    1.000
    C63      C        0.65784    0.49760    0.18538    1.000
    C64      C        0.62891    0.52360    0.23779    1.000
    H47      H        0.57480    0.54460    0.22220    1.000
    C65      C        0.67964    0.51880    0.31366    1.000
    C66      C        0.76013    0.49120    0.33630    1.000
    H48      H        0.79470    0.48980    0.38770    1.000
    C67      C        0.79010    0.46560    0.28365    1.000
    C68      C        0.73755    0.46820    0.20862    1.000
    H49      H        0.75660    0.44940    0.17240    1.000
    C69      C        0.60346    0.50040    0.10434    1.000
    C70      C        0.64530    0.53960    0.36774    1.000
    C71      C        0.87420    0.43720    0.30585    1.000
    N5       N        0.58122    0.63440    0.94948    1.000
    N6       N        0.57938    0.26590    0.95171    1.000
    C72      C        0.63700    0.69720    0.00532    1.000
    H50      H        0.67690    0.65480    0.04480    1.000
    C73      C        0.63860    0.81870    0.00768    1.000
    H51      H        0.67900    0.85870    0.04810    1.000
    C74      C        0.58050    0.88410    0.95018    1.000
    C75      C        0.52460    0.82050    0.89312    1.000
    H52      H        0.48420    0.86060    0.85280    1.000
    C76      C        0.52760    0.69630    0.89467    1.000
    H53      H        0.48900    0.65410    0.85410    1.000
    C77      C        0.51720    0.20200    0.91090    1.000
    H54      H        0.46970    0.24250    0.88070    1.000
    C78      C        0.51660    0.08040    0.90940    1.000
    H55      H        0.46930    0.04090    0.87760    1.000
    C79      C        0.64590    0.08160    0.99710    1.000
    H56      H        0.69290    0.04270    0.02990    1.000
    C80      C        0.64250    0.20530    0.99520    1.000
    H57      H        0.68820    0.24820    0.02700    1.000
    C81      C        0.58010    0.01450    0.95081    1.000
    C82      C        0.06600    0.65690    0.28550    1.000
    H58      H        0.11390    0.61420    0.31120    1.000
    C83      C        0.06890    0.77760    0.28730    1.000
    H59      H        0.11800    0.81680    0.31400    1.000
    C84      C        0.06300    0.16070    0.29150    1.000
    H60      H        0.11000    0.20220    0.32200    1.000
    C85      C        0.06480    0.03850    0.29320    1.000
    H61      H        0.11180    0.99830    0.32490    1.000
    C86      C        0.54780    0.20250    0.88990    1.000
    H62      H        0.52590    0.24490    0.84430    1.000
    C87      C        0.54410    0.08200    0.88620    1.000
    H63      H        0.51700    0.04360    0.83960    1.000
    C88      C        0.60400    0.07780    0.01430    1.000
    H64      H        0.61950    0.03710    0.06020    1.000
    C89      C        0.60800    0.19890    0.01410    1.000
    H65      H        0.63120    0.23850    0.06060    1.000
    C90      C        0.00460    0.66410    0.19460    1.000
    H66      H        0.00850    0.62330    0.15440    1.000
    C91      C        0.00410    0.78450    0.19230    1.000
    H67      H        0.00650    0.82570    0.15160    1.000
    C92      C        0.01150    0.16370    0.19800    1.000
    H68      H        0.02090    0.20580    0.16100    1.000
    C93      C        0.01020    0.04480    0.19650    1.000
    H69      H        0.01650    0.00560    0.15700    1.000
    Ni4      Ni       0.42077    0.44984    0.54874    1.000
    O19      O        0.37210    0.44574    0.43806    1.000
    O20      O        0.46003    0.55689    0.41572    1.000
    O21      O        0.30982    0.54537    0.06227    1.000
    O22      O        0.42838    0.54947    0.15604    1.000
    O23      O        0.10746    0.41110    0.24605    1.000
    O24      O        0.07839    0.44080    0.12639    1.000
    C94      C        0.34216    0.49760    0.31462    1.000
    C95      C        0.37109    0.52360    0.26221    1.000
    H70      H        0.42520    0.54460    0.27780    1.000
    C96      C        0.32036    0.51880    0.18634    1.000
    C97      C        0.23987    0.49120    0.16370    1.000
    H71      H        0.20530    0.48980    0.11230    1.000
    C98      C        0.20990    0.46560    0.21635    1.000
    C99      C        0.26245    0.46820    0.29138    1.000
    H72      H        0.24340    0.44940    0.32760    1.000
    C100     C        0.39654    0.50040    0.39566    1.000
    C101     C        0.35470    0.53960    0.13226    1.000
    C102     C        0.12580    0.43720    0.19415    1.000
    N7       N        0.41878    0.63440    0.55052    1.000
    N8       N        0.42062    0.26590    0.54829    1.000
    C103     C        0.36300    0.69720    0.49468    1.000
    H73      H        0.32310    0.65480    0.45520    1.000
    C104     C        0.36140    0.81870    0.49232    1.000
    H74      H        0.32100    0.85870    0.45190    1.000
    C105     C        0.41950    0.88410    0.54982    1.000
    C106     C        0.47540    0.82050    0.60688    1.000
    H75      H        0.51580    0.86060    0.64720    1.000
    C107     C        0.47240    0.69630    0.60533    1.000
    H76      H        0.51100    0.65410    0.64590    1.000
    C108     C        0.48280    0.20200    0.58910    1.000
    H77      H        0.53030    0.24250    0.61930    1.000
    C109     C        0.48340    0.08040    0.59060    1.000
    H78      H        0.53070    0.04090    0.62240    1.000
    C110     C        0.35410    0.08160    0.50290    1.000
    H79      H        0.30710    0.04270    0.47010    1.000
    C111     C        0.35750    0.20530    0.50480    1.000
    H80      H        0.31180    0.24820    0.47300    1.000
    C112     C        0.41990    0.01450    0.54919    1.000
    C113     C        0.93400    0.65690    0.21450    1.000
    H81      H        0.88610    0.61420    0.18880    1.000
    C114     C        0.93110    0.77760    0.21270    1.000
    H82      H        0.88200    0.81680    0.18600    1.000
    C115     C        0.93700    0.16070    0.20850    1.000
    H83      H        0.89000    0.20220    0.17800    1.000
    C116     C        0.93520    0.03850    0.20680    1.000
    H84      H        0.88820    0.99830    0.17510    1.000
    C117     C        0.45220    0.20250    0.61010    1.000
    H85      H        0.47410    0.24490    0.65570    1.000
    C118     C        0.45590    0.08200    0.61380    1.000
    H86      H        0.48300    0.04360    0.66040    1.000
    C119     C        0.39600    0.07780    0.48570    1.000
    H87      H        0.38050    0.03710    0.43980    1.000
    C120     C        0.39200    0.19890    0.48590    1.000
    H88      H        0.36880    0.23850    0.43940    1.000
    C121     C        0.99540    0.66410    0.30540    1.000
    H89      H        0.99150    0.62330    0.34560    1.000
    C122     C        0.99590    0.78450    0.30770    1.000
    H90      H        0.99350    0.82570    0.34840    1.000
    C123     C        0.98850    0.16370    0.30200    1.000
    H91      H        0.97910    0.20580    0.33900    1.000
    C124     C        0.98980    0.04480    0.30350    1.000
    H92      H        0.98350    0.00560    0.34300    1.000
    Ni5      Ni       0.00000    0.59049    0.75000    1.000
    N9       N        0.00000    0.40410    0.75000    1.000
    N10      N        0.00000    0.77590    0.75000    1.000
    C125     C        0.00000    0.15540    0.75000    1.000
    C126     C        0.00000    0.02410    0.75000    1.000
    Ni6      Ni       0.00000    0.40951    0.25000    1.000
    N11      N        0.00000    0.59590    0.25000    1.000
    N12      N        0.00000    0.22410    0.25000    1.000
    C127     C        0.00000    0.84460    0.25000    1.000
    C128     C        0.00000    0.97590    0.25000    1.000
