# CIF file generated by openbabel 3.1.0, see https://openbabel.org
data_I
_chemical_name_common 'image0'
_cell_length_a 16.1122
_cell_length_b 19.1301
_cell_length_c 19.9491
_cell_angle_alpha 113.359
_cell_angle_beta 103.862
_cell_angle_gamma 91.934
_space_group_name_H-M_alt 'P 1'
_space_group_name_Hall 'P 1'
loop_
    _symmetry_equiv_pos_as_xyz
    x,y,z
loop_
    _atom_site_label
    _atom_site_type_symbol
    _atom_site_fract_x
    _atom_site_fract_y
    _atom_site_fract_z
    _atom_site_occupancy
    Ca1      Ca       0.20997    0.60033    0.39147    1.000
    Ca2      Ca       0.37747    0.74498    0.40971    1.000
    Ca3      Ca       0.59378    0.68468    0.34271    1.000
    O1       O        0.32289    0.98642    0.81066    1.000
    O2       O        0.40207    0.98117    0.13173    1.000
    O3       O        0.39671    0.27132    0.14589    1.000
    O4       O        0.16610    0.69625    0.49583    1.000
    O5       O        0.29496    0.72559    0.48648    1.000
    O6       O        0.53120    0.76540    0.29390    1.000
    O7       O        0.41750    0.79970    0.33660    1.000
    O8       O        0.34976    0.59989    0.37150    1.000
    O9       O        0.45464    0.63512    0.33403    1.000
    O10      O        0.79568    0.87832    0.81849    1.000
    O11      O        0.01411    0.82890    0.10509    1.000
    O12      O        0.93319    0.15114    0.15425    1.000
    O13      O        0.49970    0.77676    0.50946    1.000
    O14      O        0.61640    0.76030    0.46798    1.000
    O15      O        0.11610    0.64320    0.30950    1.000
    O16      O        0.24230    0.69770    0.32150    1.000
    O17      O        0.16960    0.47382    0.29930    1.000
    O18      O        0.07880    0.50640    0.36570    1.000
    C1       C        0.32830    0.04790    0.93914    1.000
    C2       C        0.35780    0.00240    0.97720    1.000
    C3       C        0.42100    0.03680    0.04820    1.000
    C4       C        0.44780    0.11560    0.08301    1.000
    C5       C        0.41440    0.16130    0.04475    1.000
    C6       C        0.35710    0.12760    0.97181    1.000
    C7       C        0.32490    0.91850    0.94390    1.000
    H1       H        0.27280    0.91120    0.95700    1.000
    H2       H        0.36760    0.89260    0.96350    1.000
    H3       H        0.31310    0.89780    0.88960    1.000
    C8       C        0.51170    0.15470    0.16070    1.000
    H4       H        0.52970    0.11680    0.17920    1.000
    H5       H        0.48490    0.19090    0.19500    1.000
    H6       H        0.56110    0.18120    0.15720    1.000
    C9       C        0.32670    0.17510    0.92840    1.000
    H7       H        0.28410    0.20420    0.94830    1.000
    H8       H        0.30180    0.14170    0.87570    1.000
    H9       H        0.37480    0.20960    0.93350    1.000
    C10      C        0.26810    0.00910    0.86130    1.000
    H10      H        0.23260    0.96440    0.85630    1.000
    H11      H        0.23070    0.04400    0.85020    1.000
    C11      C        0.29490    0.92530    0.74110    1.000
    C12      C        0.35560    0.91130    0.69940    1.000
    H12      H        0.40850    0.94300    0.71870    1.000
    C13      C        0.33560    0.84980    0.62930    1.000
    H13      H        0.37640    0.83950    0.60190    1.000
    C14      C        0.25860    0.80410    0.59930    1.000
    C15      C        0.19890    0.81940    0.64060    1.000
    H14      H        0.14540    0.78840    0.62010    1.000
    C16      C        0.21670    0.87960    0.71200    1.000
    H15      H        0.17600    0.88870    0.73950    1.000
    C17      C        0.23870    0.73820    0.52250    1.000
    C18      C        0.45750    0.98730    0.08730    1.000
    H16      H        0.46030    0.93670    0.05000    1.000
    H17      H        0.51540    0.01030    0.11970    1.000
    C19      C        0.42290    0.93630    0.17090    1.000
    C20      C        0.36840    0.93450    0.21500    1.000
    H18      H        0.32300    0.96330    0.21800    1.000
    C21      C        0.38370    0.88870    0.25400    1.000
    H19      H        0.34680    0.88620    0.28270    1.000
    C22      C        0.44950    0.84750    0.25250    1.000
    C23      C        0.50440    0.85130    0.20930    1.000
    H20      H        0.55090    0.82380    0.20800    1.000
    C24      C        0.49070    0.89530    0.16870    1.000
    H21      H        0.52740    0.89720    0.13970    1.000
    C25      C        0.46740    0.80120    0.29870    1.000
    C26      C        0.43940    0.24660    0.08610    1.000
    H22      H        0.50160    0.25970    0.10730    1.000
    H23      H        0.42090    0.27120    0.05190    1.000
    C27      C        0.40500    0.34790    0.19120    1.000
    C28      C        0.36020    0.36700    0.24550    1.000
    H24      H        0.32950    0.32840    0.25100    1.000
    C29      C        0.36110    0.44300    0.29150    1.000
    H25      H        0.32990    0.45520    0.32730    1.000
    C30      C        0.40690    0.50140    0.28570    1.000
    C31      C        0.45280    0.48040    0.23210    1.000
    H26      H        0.48540    0.51880    0.22780    1.000
    C32      C        0.45180    0.40530    0.18500    1.000
    H27      H        0.48260    0.39310    0.14900    1.000
    C33      C        0.40400    0.58360    0.33250    1.000
    C34      C        0.82720    0.91780    0.95331    1.000
    C35      C        0.85020    0.86570    0.98440    1.000
    C36      C        0.90550    0.89240    0.05850    1.000
    C37      C        0.94130    0.96910    0.09790    1.000
    C38      C        0.92430    0.01960    0.06250    1.000
    C39      C        0.86630    0.99510    0.99180    1.000
    C40      C        0.81690    0.78160    0.93970    1.000
    H28      H        0.86240    0.75220    0.94780    1.000
    H29      H        0.79740    0.77040    0.88670    1.000
    H30      H        0.76970    0.76820    0.95610    1.000
    C41      C        0.99680    0.99940    0.17910    1.000
    H31      H        0.97890    0.96950    0.20340    1.000
    H32      H        0.99050    0.05220    0.20580    1.000
    H33      H        0.05620    0.99570    0.17960    1.000
    C42      C        0.84540    0.05070    0.95500    1.000
    H34      H        0.84230    0.10010    0.99300    1.000
    H35      H        0.79080    0.03150    0.91700    1.000
    H36      H        0.88980    0.05580    0.93190    1.000
    C43      C        0.75700    0.89310    0.87957    1.000
    H37      H        0.72080    0.84690    0.87050    1.000
    H38      H        0.72100    0.93330    0.88250    1.000
    C44      C        0.73930    0.85560    0.74762    1.000
    C45      C        0.77610    0.84180    0.68890    1.000
    H39      H        0.83590    0.84860    0.69870    1.000
    C46      C        0.72460    0.81790    0.61590    1.000
    H40      H        0.75030    0.80860    0.57660    1.000
    C47      C        0.63570    0.80740    0.59950    1.000
    C48      C        0.60060    0.82390    0.65880    1.000
    H41      H        0.54080    0.81950    0.64950    1.000
    C49      C        0.65170    0.84730    0.73270    1.000
    H42      H        0.62610    0.85720    0.77210    1.000
    C50      C        0.57840    0.77980    0.51950    1.000
    C51      C        0.92500    0.83810    0.09550    1.000
    H43      H        0.91280    0.85850    0.14450    1.000
    H44      H        0.88900    0.78870    0.06410    1.000
    C52      C        0.04740    0.79270    0.15070    1.000
    C53      C        0.13540    0.80080    0.17630    1.000
    H45      H        0.17050    0.82980    0.16300    1.000
    C54      C        0.17150    0.76480    0.22270    1.000
    H46      H        0.23140    0.77020    0.23980    1.000
    C55      C        0.12260    0.72180    0.24410    1.000
    C56      C        0.03650    0.71490    0.21720    1.000
    H47      H        0.00190    0.68610    0.23110    1.000
    C57      C        0.99640    0.74770    0.17060    1.000
    H48      H        0.93650    0.74010    0.15250    1.000
    C58      C        0.16210    0.68370    0.29550    1.000
    C59      C        0.97480    0.09990    0.10130    1.000
    H49      H        0.03310    0.09850    0.12810    1.000
    H50      H        0.97850    0.11890    0.06350    1.000
    C60      C        0.97650    0.22490    0.19360    1.000
    C61      C        0.05060    0.24910    0.18230    1.000
    H51      H        0.07460    0.21470    0.14680    1.000
    C62      C        0.09030    0.32480    0.22350    1.000
    H52      H        0.14120    0.34010    0.21550    1.000
    C63      C        0.05740    0.37590    0.27400    1.000
    C64      C        0.98660    0.35060    0.28920    1.000
    H53      H        0.96510    0.38480    0.32700    1.000
    C65      C        0.94610    0.27520    0.24950    1.000
    H54      H        0.89840    0.25900    0.26100    1.000
    C66      C        0.10530    0.45850    0.31730    1.000
    C67      C        0.44720    0.97330    0.56590    1.000
    H55      H        0.47040    0.93280    0.57790    1.000
    H56      H        0.43270    0.01010    0.60920    1.000
    H57      H        0.48950    0.99830    0.55280    1.000
    C68      C        0.36760    0.94020    0.50000    1.000
    O19      O        0.34420    0.87010    0.47200    1.000
    N1       N        0.32020    0.98380    0.47000    1.000
    C69      C        0.24570    0.95150    0.40480    1.000
    H58      H        0.23680    0.89660    0.38690    1.000
    H59      H        0.25490    0.96480    0.36520    1.000
    H60      H        0.19560    0.97180    0.41880    1.000
    C70      C        0.33820    0.06630    0.49910    1.000
    H61      H        0.38770    0.08510    0.54270    1.000
    H62      H        0.28920    0.08860    0.51340    1.000
    H63      H        0.34980    0.08020    0.46060    1.000
    C71      C        0.25840    0.93210    0.40720    1.000
    H64      H        0.23300    0.88030    0.37240    1.000
    H65      H        0.27690    0.95850    0.38000    1.000
    H66      H        0.21640    0.95840    0.43090    1.000
    C72      C        0.32840    0.93080    0.46200    1.000
    O20      O        0.34400    0.86850    0.45730    1.000
    N2       N        0.37770    0.99380    0.51760    1.000
    C73      C        0.45110    0.99610    0.57760    1.000
    H67      H        0.45720    0.94480    0.57280    1.000
    H68      H        0.44190    0.02620    0.62610    1.000
    H69      H        0.50260    0.01900    0.57360    1.000
    C74      C        0.36950    0.07320    0.53090    1.000
    H70      H        0.32380    0.07470    0.49070    1.000
    H71      H        0.42280    0.09840    0.53220    1.000
    H72      H        0.35660    0.09920    0.57860    1.000
    Ca4      Ca       0.79003    0.39967    0.60853    1.000
    Ca5      Ca       0.62253    0.25502    0.59029    1.000
    Ca6      Ca       0.40622    0.31532    0.65729    1.000
    O21      O        0.67711    0.01358    0.18934    1.000
    O22      O        0.59793    0.01883    0.86827    1.000
    O23      O        0.60329    0.72868    0.85411    1.000
    O24      O        0.83390    0.30375    0.50417    1.000
    O25      O        0.70504    0.27441    0.51352    1.000
    O26      O        0.46880    0.23460    0.70610    1.000
    O27      O        0.58250    0.20030    0.66340    1.000
    O28      O        0.65024    0.40011    0.62850    1.000
    O29      O        0.54536    0.36488    0.66597    1.000
    O30      O        0.20432    0.12168    0.18151    1.000
    O31      O        0.98589    0.17110    0.89491    1.000
    O32      O        0.06681    0.84886    0.84575    1.000
    O33      O        0.50030    0.22324    0.49054    1.000
    O34      O        0.38360    0.23970    0.53202    1.000
    O35      O        0.88390    0.35680    0.69050    1.000
    O36      O        0.75770    0.30230    0.67850    1.000
    O37      O        0.83040    0.52618    0.70070    1.000
    O38      O        0.92120    0.49360    0.63430    1.000
    C75      C        0.67170    0.95210    0.06086    1.000
    C76      C        0.64220    0.99760    0.02280    1.000
    C77      C        0.57900    0.96320    0.95180    1.000
    C78      C        0.55220    0.88440    0.91699    1.000
    C79      C        0.58560    0.83870    0.95525    1.000
    C80      C        0.64290    0.87240    0.02819    1.000
    C81      C        0.67510    0.08150    0.05610    1.000
    H73      H        0.72720    0.08880    0.04300    1.000
    H74      H        0.63240    0.10740    0.03650    1.000
    H75      H        0.68690    0.10220    0.11040    1.000
    C82      C        0.48830    0.84530    0.83930    1.000
    H76      H        0.47030    0.88320    0.82080    1.000
    H77      H        0.51510    0.80910    0.80500    1.000
    H78      H        0.43890    0.81880    0.84280    1.000
    C83      C        0.67330    0.82490    0.07160    1.000
    H79      H        0.71590    0.79580    0.05170    1.000
    H80      H        0.69820    0.85830    0.12430    1.000
    H81      H        0.62520    0.79040    0.06650    1.000
    C84      C        0.73190    0.99090    0.13870    1.000
    H82      H        0.76740    0.03560    0.14370    1.000
    H83      H        0.76930    0.95600    0.14980    1.000
    C85      C        0.70510    0.07470    0.25890    1.000
    C86      C        0.64440    0.08870    0.30060    1.000
    H84      H        0.59150    0.05700    0.28130    1.000
    C87      C        0.66440    0.15020    0.37070    1.000
    H85      H        0.62360    0.16050    0.39810    1.000
    C88      C        0.74140    0.19590    0.40070    1.000
    C89      C        0.80110    0.18060    0.35940    1.000
    H86      H        0.85460    0.21160    0.37990    1.000
    C90      C        0.78330    0.12040    0.28800    1.000
    H87      H        0.82400    0.11130    0.26050    1.000
    C91      C        0.76130    0.26180    0.47750    1.000
    C92      C        0.54250    0.01270    0.91270    1.000
    H88      H        0.53970    0.06330    0.95000    1.000
    H89      H        0.48460    0.98970    0.88030    1.000
    C93      C        0.57710    0.06370    0.82910    1.000
    C94      C        0.63160    0.06550    0.78500    1.000
    H90      H        0.67700    0.03670    0.78200    1.000
    C95      C        0.61630    0.11130    0.74600    1.000
    H91      H        0.65320    0.11380    0.71730    1.000
    C96      C        0.55050    0.15250    0.74750    1.000
    C97      C        0.49560    0.14870    0.79070    1.000
    H92      H        0.44910    0.17620    0.79200    1.000
    C98      C        0.50930    0.10470    0.83130    1.000
    H93      H        0.47260    0.10280    0.86030    1.000
    C99      C        0.53260    0.19880    0.70130    1.000
    C100     C        0.56060    0.75340    0.91390    1.000
    H94      H        0.49840    0.74030    0.89270    1.000
    H95      H        0.57910    0.72880    0.94810    1.000
    C101     C        0.59500    0.65210    0.80880    1.000
    C102     C        0.63980    0.63300    0.75450    1.000
    H96      H        0.67050    0.67160    0.74900    1.000
    C103     C        0.63890    0.55700    0.70850    1.000
    H97      H        0.67010    0.54480    0.67270    1.000
    C104     C        0.59310    0.49860    0.71430    1.000
    C105     C        0.54720    0.51960    0.76790    1.000
    H98      H        0.51460    0.48120    0.77220    1.000
    C106     C        0.54820    0.59470    0.81500    1.000
    H99      H        0.51740    0.60690    0.85100    1.000
    C107     C        0.59600    0.41640    0.66750    1.000
    C108     C        0.17280    0.08220    0.04669    1.000
    C109     C        0.14980    0.13430    0.01560    1.000
    C110     C        0.09450    0.10760    0.94150    1.000
    C111     C        0.05870    0.03090    0.90210    1.000
    C112     C        0.07570    0.98040    0.93750    1.000
    C113     C        0.13370    0.00490    0.00820    1.000
    C114     C        0.18310    0.21840    0.06030    1.000
    H100     H        0.13760    0.24780    0.05220    1.000
    H101     H        0.20260    0.22960    0.11330    1.000
    H102     H        0.23030    0.23180    0.04390    1.000
    C115     C        0.00320    0.00060    0.82090    1.000
    H103     H        0.02110    0.03050    0.79660    1.000
    H104     H        0.00950    0.94780    0.79420    1.000
    H105     H        0.94380    0.00430    0.82040    1.000
    C116     C        0.15460    0.94930    0.04500    1.000
    H106     H        0.15770    0.89990    0.00700    1.000
    H107     H        0.20920    0.96850    0.08300    1.000
    H108     H        0.11020    0.94420    0.06810    1.000
    C117     C        0.24300    0.10690    0.12043    1.000
    H109     H        0.27920    0.15310    0.12950    1.000
    H110     H        0.27900    0.06670    0.11750    1.000
    C118     C        0.26070    0.14440    0.25238    1.000
    C119     C        0.22390    0.15820    0.31110    1.000
    H111     H        0.16410    0.15140    0.30130    1.000
    C120     C        0.27540    0.18210    0.38410    1.000
    H112     H        0.24970    0.19140    0.42340    1.000
    C121     C        0.36430    0.19260    0.40050    1.000
    C122     C        0.39940    0.17610    0.34120    1.000
    H113     H        0.45920    0.18050    0.35050    1.000
    C123     C        0.34830    0.15270    0.26730    1.000
    H114     H        0.37390    0.14280    0.22790    1.000
    C124     C        0.42160    0.22020    0.48050    1.000
    C125     C        0.07500    0.16190    0.90450    1.000
    H115     H        0.08720    0.14150    0.85550    1.000
    H116     H        0.11100    0.21130    0.93590    1.000
    C126     C        0.95260    0.20730    0.84930    1.000
    C127     C        0.86460    0.19920    0.82370    1.000
    H117     H        0.82950    0.17020    0.83700    1.000
    C128     C        0.82850    0.23520    0.77730    1.000
    H118     H        0.76860    0.22980    0.76020    1.000
    C129     C        0.87740    0.27820    0.75590    1.000
    C130     C        0.96350    0.28510    0.78280    1.000
    H119     H        0.99810    0.31390    0.76890    1.000
    C131     C        0.00360    0.25230    0.82940    1.000
    H120     H        0.06350    0.25990    0.84750    1.000
    C132     C        0.83790    0.31630    0.70450    1.000
    C133     C        0.02520    0.90010    0.89870    1.000
    H121     H        0.96690    0.90150    0.87190    1.000
    H122     H        0.02150    0.88110    0.93650    1.000
    C134     C        0.02350    0.77510    0.80640    1.000
    C135     C        0.94940    0.75090    0.81770    1.000
    H123     H        0.92540    0.78530    0.85320    1.000
    C136     C        0.90970    0.67520    0.77650    1.000
    H124     H        0.85880    0.65990    0.78450    1.000
    C137     C        0.94260    0.62410    0.72600    1.000
    C138     C        0.01340    0.64940    0.71080    1.000
    H125     H        0.03490    0.61520    0.67300    1.000
    C139     C        0.05390    0.72480    0.75050    1.000
    H126     H        0.10160    0.74100    0.73900    1.000
    C140     C        0.89470    0.54150    0.68270    1.000
    C141     C        0.55280    0.02670    0.43410    1.000
    H127     H        0.52960    0.06720    0.42210    1.000
    H128     H        0.56730    0.98990    0.39080    1.000
    H129     H        0.51050    0.00170    0.44720    1.000
    C142     C        0.63240    0.05980    0.50000    1.000
    O39      O        0.65580    0.12990    0.52800    1.000
    N3       N        0.67980    0.01620    0.53000    1.000
    C143     C        0.75430    0.04850    0.59520    1.000
    H130     H        0.76320    0.10340    0.61310    1.000
    H131     H        0.74510    0.03520    0.63480    1.000
    H132     H        0.80440    0.02820    0.58120    1.000
    C144     C        0.66180    0.93370    0.50090    1.000
    H133     H        0.61230    0.91490    0.45730    1.000
    H134     H        0.71080    0.91140    0.48660    1.000
    H135     H        0.65020    0.91980    0.53940    1.000
    C145     C        0.74160    0.06790    0.59280    1.000
    H136     H        0.76700    0.11970    0.62760    1.000
    H137     H        0.72310    0.04150    0.62000    1.000
    H138     H        0.78360    0.04160    0.56910    1.000
    C146     C        0.67160    0.06920    0.53800    1.000
    O40      O        0.65600    0.13150    0.54270    1.000
    N4       N        0.62230    0.00620    0.48240    1.000
    C147     C        0.54890    0.00390    0.42240    1.000
    H139     H        0.54280    0.05520    0.42720    1.000
    H140     H        0.55810    0.97380    0.37390    1.000
    H141     H        0.49740    0.98100    0.42640    1.000
    C148     C        0.63050    0.92680    0.46910    1.000
    H142     H        0.67620    0.92530    0.50930    1.000
    H143     H        0.57720    0.90160    0.46780    1.000
    H144     H        0.64340    0.90080    0.42140    1.000
