# CIF file generated by openbabel 3.1.0, see https://openbabel.org
data_I
_chemical_name_common 'image0'
_cell_length_a 13.5137
_cell_length_b 9.0119
_cell_length_c 9.6357
_cell_angle_alpha 90
_cell_angle_beta 134.507
_cell_angle_gamma 90
_space_group_name_H-M_alt 'P 1'
_space_group_name_Hall 'P 1'
loop_
    _symmetry_equiv_pos_as_xyz
    x,y,z
loop_
    _atom_site_label
    _atom_site_type_symbol
    _atom_site_fract_x
    _atom_site_fract_y
    _atom_site_fract_z
    _atom_site_occupancy
    P1       P        0.33315    0.60284    0.22063    1.000
    O1       O        0.32510    0.56950    0.05740    1.000
    O2       O        0.46560    0.68620    0.38960    1.000
    O3       O        0.20760    0.69340    0.14430    1.000
    O4       O        0.32040    0.45320    0.28060    1.000
    Be1      Be       0.36920    0.64780    0.95780    1.000
    P2       P        0.83315    0.10284    0.22063    1.000
    O5       O        0.82510    0.06950    0.05740    1.000
    O6       O        0.96560    0.18620    0.38960    1.000
    O7       O        0.70760    0.19340    0.14430    1.000
    O8       O        0.82040    0.95320    0.28060    1.000
    Be2      Be       0.86920    0.14780    0.95780    1.000
    P3       P        0.66685    0.60284    0.27937    1.000
    O9       O        0.67490    0.56950    0.44260    1.000
    O10      O        0.53440    0.68620    0.11040    1.000
    O11      O        0.79240    0.69340    0.35570    1.000
    O12      O        0.67960    0.45320    0.21940    1.000
    Be3      Be       0.63080    0.64780    0.54220    1.000
    P4       P        0.16685    0.10284    0.27937    1.000
    O13      O        0.17490    0.06950    0.44260    1.000
    O14      O        0.03440    0.18620    0.11040    1.000
    O15      O        0.29240    0.19340    0.35570    1.000
    O16      O        0.17960    0.95320    0.21940    1.000
    Be4      Be       0.13080    0.14780    0.54220    1.000
    P5       P        0.66685    0.39716    0.77937    1.000
    O17      O        0.67490    0.43050    0.94260    1.000
    O18      O        0.53440    0.31380    0.61040    1.000
    O19      O        0.79240    0.30660    0.85570    1.000
    O20      O        0.67960    0.54680    0.71940    1.000
    Be5      Be       0.63080    0.35220    0.04220    1.000
    P6       P        0.16685    0.89716    0.77937    1.000
    O21      O        0.17490    0.93050    0.94260    1.000
    O22      O        0.03440    0.81380    0.61040    1.000
    O23      O        0.29240    0.80660    0.85570    1.000
    O24      O        0.17960    0.04680    0.71940    1.000
    Be6      Be       0.13080    0.85220    0.04220    1.000
    P7       P        0.33315    0.39716    0.72063    1.000
    O25      O        0.32510    0.43050    0.55740    1.000
    O26      O        0.46560    0.31380    0.88960    1.000
    O27      O        0.20760    0.30660    0.64430    1.000
    O28      O        0.32040    0.54680    0.78060    1.000
    Be7      Be       0.36920    0.35220    0.45780    1.000
    P8       P        0.83315    0.89716    0.72063    1.000
    O29      O        0.82510    0.93050    0.55740    1.000
    O30      O        0.96560    0.81380    0.88960    1.000
    O31      O        0.70760    0.80660    0.64430    1.000
    O32      O        0.82040    0.04680    0.78060    1.000
    Be8      Be       0.86920    0.85220    0.45780    1.000
