# CIF file generated by openbabel 3.1.0, see https://openbabel.org
data_I
_chemical_name_common 'image0'
_cell_length_a 22.92
_cell_length_b 22.92
_cell_length_c 22.27
_cell_angle_alpha 90
_cell_angle_beta 90
_cell_angle_gamma 120
_space_group_name_H-M_alt 'P 1'
_space_group_name_Hall 'P 1'
loop_
    _symmetry_equiv_pos_as_xyz
    x,y,z
loop_
    _atom_site_label
    _atom_site_type_symbol
    _atom_site_fract_x
    _atom_site_fract_y
    _atom_site_fract_z
    _atom_site_occupancy
    I1       I        0.84675    0.60946    0.83789    1.000
    I2       I        0.81050    0.44476    0.70891    1.000
    Cu1      Cu       0.84154    0.57577    0.72245    1.000
    Cu2      Cu       0.76475    0.48131    0.80428    1.000
    N1       N        0.93800    0.62660    0.68860    1.000
    N2       N        0.76520    0.42060    0.87330    1.000
    C1       C        0.94170    0.60150    0.62990    1.000
    H1       H        0.91420    0.60990    0.60200    1.000
    H2       H        0.92310    0.55310    0.63230    1.000
    C2       C        0.98610    0.62000    0.72820    1.000
    H3       H        0.97290    0.57280    0.73170    1.000
    H4       H        0.98460    0.63650    0.76790    1.000
    C3       C        0.96390    0.70090    0.68360    1.000
    H5       H        0.96870    0.72010    0.72340    1.000
    H6       H        0.93200    0.70850    0.66120    1.000
    C4       C        0.73260    0.43020    0.92700    1.000
    H7       H        0.68760    0.42110    0.91720    1.000
    H8       H        0.75860    0.47620    0.94140    1.000
    C5       C        0.83220    0.43640    0.88900    1.000
    H9       H        0.85920    0.48420    0.89760    1.000
    H10      H        0.85260    0.42650    0.85530    1.000
    C6       C        0.72950    0.35100    0.85580    1.000
    H11      H        0.74860    0.34560    0.81880    1.000
    H12      H        0.68270    0.33750    0.84820    1.000
    I3       I        0.39054    0.23729    0.50456    1.000
    I4       I        0.55524    0.36574    0.37558    1.000
    Cu3      Cu       0.42423    0.26577    0.38912    1.000
    Cu4      Cu       0.51869    0.28344    0.47095    1.000
    N3       N        0.37340    0.31140    0.35527    1.000
    N4       N        0.57940    0.34460    0.53997    1.000
    C7       C        0.39850    0.34020    0.29657    1.000
    H13      H        0.39010    0.30430    0.26867    1.000
    H14      H        0.44690    0.37000    0.29897    1.000
    C8       C        0.38000    0.36610    0.39487    1.000
    H15      H        0.42720    0.40010    0.39837    1.000
    H16      H        0.36350    0.34810    0.43457    1.000
    C9       C        0.29910    0.26300    0.35027    1.000
    H17      H        0.27990    0.24860    0.39007    1.000
    H18      H        0.29150    0.22350    0.32787    1.000
    C10      C        0.56980    0.30240    0.59367    1.000
    H19      H        0.57890    0.26650    0.58387    1.000
    H20      H        0.52380    0.28240    0.60807    1.000
    C11      C        0.56360    0.39580    0.55567    1.000
    H21      H        0.51580    0.37500    0.56427    1.000
    H22      H        0.57350    0.42610    0.52197    1.000
    C12      C        0.64900    0.37850    0.52247    1.000
    H23      H        0.65440    0.40300    0.48547    1.000
    H24      H        0.66250    0.34520    0.51487    1.000
    I5       I        0.76271    0.15325    0.17122    1.000
    I6       I        0.63426    0.18950    0.04224    1.000
    Cu5      Cu       0.73423    0.15846    0.05578    1.000
    Cu6      Cu       0.71656    0.23525    0.13761    1.000
    N5       N        0.68860    0.06200    0.02193    1.000
    N6       N        0.65540    0.23480    0.20663    1.000
    C13      C        0.65980    0.05830    0.96323    1.000
    H25      H        0.69570    0.08580    0.93533    1.000
    H26      H        0.63000    0.07690    0.96563    1.000
    C14      C        0.63390    0.01390    0.06153    1.000
    H27      H        0.59990    0.02710    0.06503    1.000
    H28      H        0.65190    0.01540    0.10123    1.000
    C15      C        0.73700    0.03610    0.01693    1.000
    H29      H        0.75140    0.03130    0.05673    1.000
    H30      H        0.77650    0.06800    0.99453    1.000
    C16      C        0.69760    0.26740    0.26033    1.000
    H31      H        0.73350    0.31240    0.25053    1.000
    H32      H        0.71760    0.24140    0.27473    1.000
    C17      C        0.60420    0.16780    0.22233    1.000
    H33      H        0.62500    0.14080    0.23093    1.000
    H34      H        0.57390    0.14740    0.18863    1.000
    C18      C        0.62150    0.27050    0.18913    1.000
    H35      H        0.59700    0.25140    0.15213    1.000
    H36      H        0.65480    0.31730    0.18153    1.000
    I7       I        0.15325    0.39054    0.33789    1.000
    I8       I        0.18950    0.55524    0.20891    1.000
    Cu7      Cu       0.15846    0.42423    0.22245    1.000
    Cu8      Cu       0.23525    0.51869    0.30428    1.000
    N7       N        0.06200    0.37340    0.18860    1.000
    N8       N        0.23480    0.57940    0.37330    1.000
    C19      C        0.05830    0.39850    0.12990    1.000
    H37      H        0.08580    0.39010    0.10200    1.000
    H38      H        0.07690    0.44690    0.13230    1.000
    C20      C        0.01390    0.38000    0.22820    1.000
    H39      H        0.02710    0.42720    0.23170    1.000
    H40      H        0.01540    0.36350    0.26790    1.000
    C21      C        0.03610    0.29910    0.18360    1.000
    H41      H        0.03130    0.27990    0.22340    1.000
    H42      H        0.06800    0.29150    0.16120    1.000
    C22      C        0.26740    0.56980    0.42700    1.000
    H43      H        0.31240    0.57890    0.41720    1.000
    H44      H        0.24140    0.52380    0.44140    1.000
    C23      C        0.16780    0.56360    0.38900    1.000
    H45      H        0.14080    0.51580    0.39760    1.000
    H46      H        0.14740    0.57350    0.35530    1.000
    C24      C        0.27050    0.64900    0.35580    1.000
    H47      H        0.25140    0.65440    0.31880    1.000
    H48      H        0.31730    0.66250    0.34820    1.000
    I9       I        0.60946    0.76271    0.00456    1.000
    I10      I        0.44476    0.63426    0.87558    1.000
    Cu9      Cu       0.57577    0.73423    0.88912    1.000
    Cu10     Cu       0.48131    0.71656    0.97095    1.000
    N9       N        0.62660    0.68860    0.85527    1.000
    N10      N        0.42060    0.65540    0.03997    1.000
    C25      C        0.60150    0.65980    0.79657    1.000
    H49      H        0.60990    0.69570    0.76867    1.000
    H50      H        0.55310    0.63000    0.79897    1.000
    C26      C        0.62000    0.63390    0.89487    1.000
    H51      H        0.57280    0.59990    0.89837    1.000
    H52      H        0.63650    0.65190    0.93457    1.000
    C27      C        0.70090    0.73700    0.85027    1.000
    H53      H        0.72010    0.75140    0.89007    1.000
    H54      H        0.70850    0.77650    0.82787    1.000
    C28      C        0.43020    0.69760    0.09367    1.000
    H55      H        0.42110    0.73350    0.08387    1.000
    H56      H        0.47620    0.71760    0.10807    1.000
    C29      C        0.43640    0.60420    0.05567    1.000
    H57      H        0.48420    0.62500    0.06427    1.000
    H58      H        0.42650    0.57390    0.02197    1.000
    C30      C        0.35100    0.62150    0.02247    1.000
    H59      H        0.34560    0.59700    0.98547    1.000
    H60      H        0.33750    0.65480    0.01487    1.000
    I11      I        0.23729    0.84675    0.67122    1.000
    I12      I        0.36574    0.81050    0.54224    1.000
    Cu11     Cu       0.26577    0.84154    0.55578    1.000
    Cu12     Cu       0.28344    0.76475    0.63761    1.000
    N11      N        0.31140    0.93800    0.52193    1.000
    N12      N        0.34460    0.76520    0.70663    1.000
    C31      C        0.34020    0.94170    0.46323    1.000
    H61      H        0.30430    0.91420    0.43533    1.000
    H62      H        0.37000    0.92310    0.46563    1.000
    C32      C        0.36610    0.98610    0.56153    1.000
    H63      H        0.40010    0.97290    0.56503    1.000
    H64      H        0.34810    0.98460    0.60123    1.000
    C33      C        0.26300    0.96390    0.51693    1.000
    H65      H        0.24860    0.96870    0.55673    1.000
    H66      H        0.22350    0.93200    0.49453    1.000
    C34      C        0.30240    0.73260    0.76033    1.000
    H67      H        0.26650    0.68760    0.75053    1.000
    H68      H        0.28240    0.75860    0.77473    1.000
    C35      C        0.39580    0.83220    0.72233    1.000
    H69      H        0.37500    0.85920    0.73093    1.000
    H70      H        0.42610    0.85260    0.68863    1.000
    C36      C        0.37850    0.72950    0.68913    1.000
    H71      H        0.40300    0.74860    0.65213    1.000
    H72      H        0.34520    0.68270    0.68153    1.000
    I13      I        0.60946    0.84675    0.82878    1.000
    I14      I        0.44476    0.81050    0.95776    1.000
    Cu13     Cu       0.57577    0.84154    0.94422    1.000
    Cu14     Cu       0.48131    0.76475    0.86239    1.000
    N13      N        0.62660    0.93800    0.97807    1.000
    N14      N        0.42060    0.76520    0.79337    1.000
    C37      C        0.60150    0.94170    0.03677    1.000
    H73      H        0.60990    0.91420    0.06467    1.000
    H74      H        0.55310    0.92310    0.03437    1.000
    C38      C        0.62000    0.98610    0.93847    1.000
    H75      H        0.57280    0.97290    0.93497    1.000
    H76      H        0.63650    0.98460    0.89877    1.000
    C39      C        0.70090    0.96390    0.98307    1.000
    H77      H        0.72010    0.96870    0.94327    1.000
    H78      H        0.70850    0.93200    0.00547    1.000
    C40      C        0.43020    0.73260    0.73967    1.000
    H79      H        0.42110    0.68760    0.74947    1.000
    H80      H        0.47620    0.75860    0.72527    1.000
    C41      C        0.43640    0.83220    0.77767    1.000
    H81      H        0.48420    0.85920    0.76907    1.000
    H82      H        0.42650    0.85260    0.81137    1.000
    C42      C        0.35100    0.72950    0.81087    1.000
    H83      H        0.34560    0.74860    0.84787    1.000
    H84      H        0.33750    0.68270    0.81847    1.000
    I15      I        0.23729    0.39054    0.16211    1.000
    I16      I        0.36574    0.55524    0.29109    1.000
    Cu15     Cu       0.26577    0.42423    0.27755    1.000
    Cu16     Cu       0.28344    0.51869    0.19572    1.000
    N15      N        0.31140    0.37340    0.31140    1.000
    N16      N        0.34460    0.57940    0.12670    1.000
    C43      C        0.34020    0.39850    0.37010    1.000
    H85      H        0.30430    0.39010    0.39800    1.000
    H86      H        0.37000    0.44690    0.36770    1.000
    C44      C        0.36610    0.38000    0.27180    1.000
    H87      H        0.40010    0.42720    0.26830    1.000
    H88      H        0.34810    0.36350    0.23210    1.000
    C45      C        0.26300    0.29910    0.31640    1.000
    H89      H        0.24860    0.27990    0.27660    1.000
    H90      H        0.22350    0.29150    0.33880    1.000
    C46      C        0.30240    0.56980    0.07300    1.000
    H91      H        0.26650    0.57890    0.08280    1.000
    H92      H        0.28240    0.52380    0.05860    1.000
    C47      C        0.39580    0.56360    0.11100    1.000
    H93      H        0.37500    0.51580    0.10240    1.000
    H94      H        0.42610    0.57350    0.14470    1.000
    C48      C        0.37850    0.64900    0.14420    1.000
    H95      H        0.40300    0.65440    0.18120    1.000
    H96      H        0.34520    0.66250    0.15180    1.000
    I17      I        0.15325    0.76271    0.49544    1.000
    I18      I        0.18950    0.63426    0.62442    1.000
    Cu17     Cu       0.15846    0.73423    0.61088    1.000
    Cu18     Cu       0.23525    0.71656    0.52905    1.000
    N17      N        0.06200    0.68860    0.64473    1.000
    N18      N        0.23480    0.65540    0.46003    1.000
    C49      C        0.05830    0.65980    0.70343    1.000
    H97      H        0.08580    0.69570    0.73133    1.000
    H98      H        0.07690    0.63000    0.70103    1.000
    C50      C        0.01390    0.63390    0.60513    1.000
    H99      H        0.02710    0.59990    0.60163    1.000
    H100     H        0.01540    0.65190    0.56543    1.000
    C51      C        0.03610    0.73700    0.64973    1.000
    H101     H        0.03130    0.75140    0.60993    1.000
    H102     H        0.06800    0.77650    0.67213    1.000
    C52      C        0.26740    0.69760    0.40633    1.000
    H103     H        0.31240    0.73350    0.41613    1.000
    H104     H        0.24140    0.71760    0.39193    1.000
    C53      C        0.16780    0.60420    0.44433    1.000
    H105     H        0.14080    0.62500    0.43573    1.000
    H106     H        0.14740    0.57390    0.47803    1.000
    C54      C        0.27050    0.62150    0.47753    1.000
    H107     H        0.25140    0.59700    0.51453    1.000
    H108     H        0.31730    0.65480    0.48513    1.000
    I19      I        0.39054    0.15325    0.32878    1.000
    I20      I        0.55524    0.18950    0.45776    1.000
    Cu19     Cu       0.42423    0.15846    0.44422    1.000
    Cu20     Cu       0.51869    0.23525    0.36239    1.000
    N19      N        0.37340    0.06200    0.47807    1.000
    N20      N        0.57940    0.23480    0.29337    1.000
    C55      C        0.39850    0.05830    0.53677    1.000
    H109     H        0.39010    0.08580    0.56467    1.000
    H110     H        0.44690    0.07690    0.53437    1.000
    C56      C        0.38000    0.01390    0.43847    1.000
    H111     H        0.42720    0.02710    0.43497    1.000
    H112     H        0.36350    0.01540    0.39877    1.000
    C57      C        0.29910    0.03610    0.48307    1.000
    H113     H        0.27990    0.03130    0.44327    1.000
    H114     H        0.29150    0.06800    0.50547    1.000
    C58      C        0.56980    0.26740    0.23967    1.000
    H115     H        0.57890    0.31240    0.24947    1.000
    H116     H        0.52380    0.24140    0.22527    1.000
    C59      C        0.56360    0.16780    0.27767    1.000
    H117     H        0.51580    0.14080    0.26907    1.000
    H118     H        0.57350    0.14740    0.31137    1.000
    C60      C        0.64900    0.27050    0.31087    1.000
    H119     H        0.65440    0.25140    0.34787    1.000
    H120     H        0.66250    0.31730    0.31847    1.000
    I21      I        0.76271    0.60946    0.66211    1.000
    I22      I        0.63426    0.44476    0.79109    1.000
    Cu21     Cu       0.73423    0.57577    0.77755    1.000
    Cu22     Cu       0.71656    0.48131    0.69572    1.000
    N21      N        0.68860    0.62660    0.81140    1.000
    N22      N        0.65540    0.42060    0.62670    1.000
    C61      C        0.65980    0.60150    0.87010    1.000
    H121     H        0.69570    0.60990    0.89800    1.000
    H122     H        0.63000    0.55310    0.86770    1.000
    C62      C        0.63390    0.62000    0.77180    1.000
    H123     H        0.59990    0.57280    0.76830    1.000
    H124     H        0.65190    0.63650    0.73210    1.000
    C63      C        0.73700    0.70090    0.81640    1.000
    H125     H        0.75140    0.72010    0.77660    1.000
    H126     H        0.77650    0.70850    0.83880    1.000
    C64      C        0.69760    0.43020    0.57300    1.000
    H127     H        0.73350    0.42110    0.58280    1.000
    H128     H        0.71760    0.47620    0.55860    1.000
    C65      C        0.60420    0.43640    0.61100    1.000
    H129     H        0.62500    0.48420    0.60240    1.000
    H130     H        0.57390    0.42650    0.64470    1.000
    C66      C        0.62150    0.35100    0.64420    1.000
    H131     H        0.59700    0.34560    0.68120    1.000
    H132     H        0.65480    0.33750    0.65180    1.000
    I23      I        0.84675    0.23729    0.99544    1.000
    I24      I        0.81050    0.36574    0.12442    1.000
    Cu23     Cu       0.84154    0.26577    0.11088    1.000
    Cu24     Cu       0.76475    0.28344    0.02905    1.000
    N23      N        0.93800    0.31140    0.14473    1.000
    N24      N        0.76520    0.34460    0.96003    1.000
    C67      C        0.94170    0.34020    0.20343    1.000
    H133     H        0.91420    0.30430    0.23133    1.000
    H134     H        0.92310    0.37000    0.20103    1.000
    C68      C        0.98610    0.36610    0.10513    1.000
    H135     H        0.97290    0.40010    0.10163    1.000
    H136     H        0.98460    0.34810    0.06543    1.000
    C69      C        0.96390    0.26300    0.14973    1.000
    H137     H        0.96870    0.24860    0.10993    1.000
    H138     H        0.93200    0.22350    0.17213    1.000
    C70      C        0.73260    0.30240    0.90633    1.000
    H139     H        0.68760    0.26650    0.91613    1.000
    H140     H        0.75860    0.28240    0.89193    1.000
    C71      C        0.83220    0.39580    0.94433    1.000
    H141     H        0.85920    0.37500    0.93573    1.000
    H142     H        0.85260    0.42610    0.97803    1.000
    C72      C        0.72950    0.37850    0.97753    1.000
    H143     H        0.74860    0.40300    0.01453    1.000
    H144     H        0.68270    0.34520    0.98513    1.000
    Cu25     Cu       0.08317    0.21976    0.39233    1.000
    N25      N        0.14690    0.22530    0.45020    1.000
    N26      N        0.20340    0.19350    0.51030    1.000
    C73      C        0.12180    0.10630    0.44040    1.000
    C74      C        0.05050    0.07050    0.43690    1.000
    H145     H        0.02660    0.09140    0.44930    1.000
    C75      C        0.15760    0.17600    0.46570    1.000
    C76      C        0.22290    0.25770    0.52270    1.000
    C77      C        0.18840    0.27870    0.48530    1.000
    C78      C        0.20120    0.34460    0.48830    1.000
    H146     H        0.17820    0.35870    0.46330    1.000
    C79      C        0.24850    0.38960    0.52880    1.000
    H147     H        0.25710    0.43370    0.53080    1.000
    C80      C        0.28300    0.36860    0.56620    1.000
    H148     H        0.31470    0.39860    0.59330    1.000
    C81      C        0.27020    0.30260    0.56320    1.000
    H149     H        0.29330    0.28850    0.58820    1.000
    Cu26     Cu       0.78024    0.86341    0.05900    1.000
    N27      N        0.77470    0.92160    0.11687    1.000
    N28      N        0.80650    0.00990    0.17697    1.000
    C82      C        0.89370    0.01550    0.10707    1.000
    C83      C        0.92950    0.98000    0.10357    1.000
    H150     H        0.90860    0.93520    0.11597    1.000
    C84      C        0.82400    0.98160    0.13237    1.000
    C85      C        0.74230    0.96520    0.18937    1.000
    C86      C        0.72130    0.90970    0.15197    1.000
    C87      C        0.65540    0.85660    0.15497    1.000
    H151     H        0.64130    0.81950    0.12997    1.000
    C88      C        0.61040    0.85890    0.19547    1.000
    H152     H        0.56630    0.82340    0.19747    1.000
    C89      C        0.63140    0.91440    0.23287    1.000
    H153     H        0.60140    0.91610    0.25997    1.000
    C90      C        0.69740    0.96760    0.22987    1.000
    H154     H        0.71150    0.00480    0.25487    1.000
    Cu27     Cu       0.13659    0.91683    0.72566    1.000
    N29      N        0.07840    0.85310    0.78353    1.000
    N30      N        0.99010    0.79660    0.84363    1.000
    C91      C        0.98450    0.87820    0.77373    1.000
    C92      C        0.02000    0.94950    0.77023    1.000
    H155     H        0.06480    0.97340    0.78263    1.000
    C93      C        0.01840    0.84240    0.79903    1.000
    C94      C        0.03480    0.77710    0.85603    1.000
    C95      C        0.09030    0.81160    0.81863    1.000
    C96      C        0.14340    0.79880    0.82163    1.000
    H156     H        0.18050    0.82180    0.79663    1.000
    C97      C        0.14110    0.75150    0.86213    1.000
    H157     H        0.17660    0.74290    0.86413    1.000
    C98      C        0.08560    0.71700    0.89953    1.000
    H158     H        0.08390    0.68530    0.92663    1.000
    C99      C        0.03240    0.72980    0.89653    1.000
    H159     H        0.99520    0.70670    0.92153    1.000
    Cu28     Cu       0.91683    0.78024    0.89233    1.000
    N31      N        0.85310    0.77470    0.95020    1.000
    N32      N        0.79660    0.80650    0.01030    1.000
    C100     C        0.87820    0.89370    0.94040    1.000
    C101     C        0.94950    0.92950    0.93690    1.000
    H160     H        0.97340    0.90860    0.94930    1.000
    C102     C        0.84240    0.82400    0.96570    1.000
    C103     C        0.77710    0.74230    0.02270    1.000
    C104     C        0.81160    0.72130    0.98530    1.000
    C105     C        0.79880    0.65540    0.98830    1.000
    H161     H        0.82180    0.64130    0.96330    1.000
    C106     C        0.75150    0.61040    0.02880    1.000
    H162     H        0.74290    0.56630    0.03080    1.000
    C107     C        0.71700    0.63140    0.06620    1.000
    H163     H        0.68530    0.60140    0.09330    1.000
    C108     C        0.72980    0.69740    0.06320    1.000
    H164     H        0.70670    0.71150    0.08820    1.000
    Cu29     Cu       0.21976    0.13659    0.55900    1.000
    N33      N        0.22530    0.07840    0.61687    1.000
    N34      N        0.19350    0.99010    0.67697    1.000
    C109     C        0.10630    0.98450    0.60707    1.000
    C110     C        0.07050    0.02000    0.60357    1.000
    H165     H        0.09140    0.06480    0.61597    1.000
    C111     C        0.17600    0.01840    0.63237    1.000
    C112     C        0.25770    0.03480    0.68937    1.000
    C113     C        0.27870    0.09030    0.65197    1.000
    C114     C        0.34460    0.14340    0.65497    1.000
    H166     H        0.35870    0.18050    0.62997    1.000
    C115     C        0.38960    0.14110    0.69547    1.000
    H167     H        0.43370    0.17660    0.69747    1.000
    C116     C        0.36860    0.08560    0.73287    1.000
    H168     H        0.39860    0.08390    0.75997    1.000
    C117     C        0.30260    0.03240    0.72987    1.000
    H169     H        0.28850    0.99520    0.75487    1.000
    Cu30     Cu       0.86341    0.08317    0.22566    1.000
    N35      N        0.92160    0.14690    0.28353    1.000
    N36      N        0.00990    0.20340    0.34363    1.000
    C118     C        0.01550    0.12180    0.27373    1.000
    C119     C        0.98000    0.05050    0.27023    1.000
    H170     H        0.93520    0.02660    0.28263    1.000
    C120     C        0.98160    0.15760    0.29903    1.000
    C121     C        0.96520    0.22290    0.35603    1.000
    C122     C        0.90970    0.18840    0.31863    1.000
    C123     C        0.85660    0.20120    0.32163    1.000
    H171     H        0.81950    0.17820    0.29663    1.000
    C124     C        0.85890    0.24850    0.36213    1.000
    H172     H        0.82340    0.25710    0.36413    1.000
    C125     C        0.91440    0.28300    0.39953    1.000
    H173     H        0.91610    0.31470    0.42663    1.000
    C126     C        0.96760    0.27020    0.39653    1.000
    H174     H        0.00480    0.29330    0.42153    1.000
    Cu31     Cu       0.21976    0.08317    0.27434    1.000
    N37      N        0.22530    0.14690    0.21647    1.000
    N38      N        0.19350    0.20340    0.15637    1.000
    C127     C        0.10630    0.12180    0.22627    1.000
    C128     C        0.07050    0.05050    0.22977    1.000
    H175     H        0.09140    0.02660    0.21737    1.000
    C129     C        0.17600    0.15760    0.20097    1.000
    C130     C        0.25770    0.22290    0.14397    1.000
    C131     C        0.27870    0.18840    0.18137    1.000
    C132     C        0.34460    0.20120    0.17837    1.000
    H176     H        0.35870    0.17820    0.20337    1.000
    C133     C        0.38960    0.24850    0.13787    1.000
    H177     H        0.43370    0.25710    0.13587    1.000
    C134     C        0.36860    0.28300    0.10047    1.000
    H178     H        0.39860    0.31470    0.07337    1.000
    C135     C        0.30260    0.27020    0.10347    1.000
    H179     H        0.28850    0.29330    0.07847    1.000
    Cu32     Cu       0.86341    0.78024    0.60767    1.000
    N39      N        0.92160    0.77470    0.54980    1.000
    N40      N        0.00990    0.80650    0.48970    1.000
    C136     C        0.01550    0.89370    0.55960    1.000
    C137     C        0.98000    0.92950    0.56310    1.000
    H180     H        0.93520    0.90860    0.55070    1.000
    C138     C        0.98160    0.82400    0.53430    1.000
    C139     C        0.96520    0.74230    0.47730    1.000
    C140     C        0.90970    0.72130    0.51470    1.000
    C141     C        0.85660    0.65540    0.51170    1.000
    H181     H        0.81950    0.64130    0.53670    1.000
    C142     C        0.85890    0.61040    0.47120    1.000
    H182     H        0.82340    0.56630    0.46920    1.000
    C143     C        0.91440    0.63140    0.43380    1.000
    H183     H        0.91610    0.60140    0.40670    1.000
    C144     C        0.96760    0.69740    0.43680    1.000
    H184     H        0.00480    0.71150    0.41180    1.000
    Cu33     Cu       0.91683    0.13659    0.94100    1.000
    N41      N        0.85310    0.07840    0.88313    1.000
    N42      N        0.79660    0.99010    0.82303    1.000
    C145     C        0.87820    0.98450    0.89293    1.000
    C146     C        0.94950    0.02000    0.89643    1.000
    H185     H        0.97340    0.06480    0.88403    1.000
    C147     C        0.84240    0.01840    0.86763    1.000
    C148     C        0.77710    0.03480    0.81063    1.000
    C149     C        0.81160    0.09030    0.84803    1.000
    C150     C        0.79880    0.14340    0.84503    1.000
    H186     H        0.82180    0.18050    0.87003    1.000
    C151     C        0.75150    0.14110    0.80453    1.000
    H187     H        0.74290    0.17660    0.80253    1.000
    C152     C        0.71700    0.08560    0.76713    1.000
    H188     H        0.68530    0.08390    0.74003    1.000
    C153     C        0.72980    0.03240    0.77013    1.000
    H189     H        0.70670    0.99520    0.74513    1.000
    Cu34     Cu       0.78024    0.91683    0.77434    1.000
    N43      N        0.77470    0.85310    0.71647    1.000
    N44      N        0.80650    0.79660    0.65637    1.000
    C154     C        0.89370    0.87820    0.72627    1.000
    C155     C        0.92950    0.94950    0.72977    1.000
    H190     H        0.90860    0.97340    0.71737    1.000
    C156     C        0.82400    0.84240    0.70097    1.000
    C157     C        0.74230    0.77710    0.64397    1.000
    C158     C        0.72130    0.81160    0.68137    1.000
    C159     C        0.65540    0.79880    0.67837    1.000
    H191     H        0.64130    0.82180    0.70337    1.000
    C160     C        0.61040    0.75150    0.63787    1.000
    H192     H        0.56630    0.74290    0.63587    1.000
    C161     C        0.63140    0.71700    0.60047    1.000
    H193     H        0.60140    0.68530    0.57337    1.000
    C162     C        0.69740    0.72980    0.60347    1.000
    H194     H        0.71150    0.70670    0.57847    1.000
    Cu35     Cu       0.13659    0.21976    0.10767    1.000
    N45      N        0.07840    0.22530    0.04980    1.000
    N46      N        0.99010    0.19350    0.98970    1.000
    C163     C        0.98450    0.10630    0.05960    1.000
    C164     C        0.02000    0.07050    0.06310    1.000
    H195     H        0.06480    0.09140    0.05070    1.000
    C165     C        0.01840    0.17600    0.03430    1.000
    C166     C        0.03480    0.25770    0.97730    1.000
    C167     C        0.09030    0.27870    0.01470    1.000
    C168     C        0.14340    0.34460    0.01170    1.000
    H196     H        0.18050    0.35870    0.03670    1.000
    C169     C        0.14110    0.38960    0.97120    1.000
    H197     H        0.17660    0.43370    0.96920    1.000
    C170     C        0.08560    0.36860    0.93380    1.000
    H198     H        0.08390    0.39860    0.90670    1.000
    C171     C        0.03240    0.30260    0.93680    1.000
    H199     H        0.99520    0.28850    0.91180    1.000
    Cu36     Cu       0.08317    0.86341    0.44100    1.000
    N47      N        0.14690    0.92160    0.38313    1.000
    N48      N        0.20340    0.00990    0.32303    1.000
    C172     C        0.12180    0.01550    0.39293    1.000
    C173     C        0.05050    0.98000    0.39643    1.000
    H200     H        0.02660    0.93520    0.38403    1.000
    C174     C        0.15760    0.98160    0.36763    1.000
    C175     C        0.22290    0.96520    0.31063    1.000
    C176     C        0.18840    0.90970    0.34803    1.000
    C177     C        0.20120    0.85660    0.34503    1.000
    H201     H        0.17820    0.81950    0.37003    1.000
    C178     C        0.24850    0.85890    0.30453    1.000
    H202     H        0.25710    0.82340    0.30253    1.000
    C179     C        0.28300    0.91440    0.26713    1.000
    H203     H        0.31470    0.91610    0.24003    1.000
    C180     C        0.27020    0.96760    0.27013    1.000
    H204     H        0.29330    0.00480    0.24513    1.000
    C181     C        0.15260    0.07630    0.41667    1.000
    H205     H        0.19940    0.09970    0.41667    1.000
    C182     C        0.01780    0.00890    0.41667    1.000
    H206     H        0.97090    0.98545    0.41667    1.000
    C183     C        0.92370    0.07630    0.08333    1.000
    H207     H        0.90030    0.09970    0.08333    1.000
    C184     C        0.99110    0.00890    0.08333    1.000
    H208     H        0.01455    0.98545    0.08333    1.000
    C185     C        0.92370    0.84740    0.75000    1.000
    H209     H        0.90030    0.80060    0.75000    1.000
    C186     C        0.99110    0.98220    0.75000    1.000
    H210     H        0.01455    0.02910    0.75000    1.000
    C187     C        0.84740    0.92370    0.91667    1.000
    H211     H        0.80060    0.90030    0.91667    1.000
    C188     C        0.98220    0.99110    0.91667    1.000
    H212     H        0.02910    0.01455    0.91667    1.000
    C189     C        0.07630    0.92370    0.58333    1.000
    H213     H        0.09970    0.90030    0.58333    1.000
    C190     C        0.00890    0.99110    0.58333    1.000
    H214     H        0.98545    0.01455    0.58333    1.000
    C191     C        0.07630    0.15260    0.25000    1.000
    H215     H        0.09970    0.19940    0.25000    1.000
    C192     C        0.00890    0.01780    0.25000    1.000
    H216     H        0.98545    0.97090    0.25000    1.000
