# CIF file generated by openbabel 3.1.0, see https://openbabel.org
data_I
_chemical_name_common 'image0'
_cell_length_a 18.352
_cell_length_b 18.352
_cell_length_c 18.352
_cell_angle_alpha 90
_cell_angle_beta 90
_cell_angle_gamma 90
_space_group_name_H-M_alt 'P 1'
_space_group_name_Hall 'P 1'
loop_
    _symmetry_equiv_pos_as_xyz
    x,y,z
loop_
    _atom_site_label
    _atom_site_type_symbol
    _atom_site_fract_x
    _atom_site_fract_y
    _atom_site_fract_z
    _atom_site_occupancy
    N1       N        0.56420    0.50770    0.30620    1.000
    C1       C        0.51250    0.45730    0.29660    1.000
    H1       H        0.49750    0.42980    0.33640    1.000
    C2       C        0.48080    0.44480    0.23050    1.000
    H2       H        0.44440    0.40980    0.22630    1.000
    O1       O        0.47200    0.47480    0.10660    1.000
    C3       C        0.50280    0.48460    0.16810    1.000
    C4       C        0.55930    0.53790    0.17940    1.000
    H3       H        0.57660    0.56560    0.14070    1.000
    C5       C        0.58670    0.54710    0.24660    1.000
    H4       H        0.62290    0.58200    0.25310    1.000
    C6       C        0.60050    0.51870    0.37730    1.000
    H5       H        0.62110    0.56730    0.37890    1.000
    H6       H        0.64010    0.48410    0.38210    1.000
    C7       C        0.54760    0.50910    0.44180    1.000
    N2       N        0.93580    0.49230    0.80620    1.000
    C8       C        0.98750    0.54270    0.79660    1.000
    H7       H        0.00250    0.57020    0.83640    1.000
    C9       C        0.01920    0.55520    0.73050    1.000
    H8       H        0.05560    0.59020    0.72630    1.000
    O2       O        0.02800    0.52520    0.60660    1.000
    C10      C        0.99720    0.51540    0.66810    1.000
    C11      C        0.94070    0.46210    0.67940    1.000
    H9       H        0.92340    0.43440    0.64070    1.000
    C12      C        0.91330    0.45290    0.74660    1.000
    H10      H        0.87710    0.41800    0.75310    1.000
    C13      C        0.89950    0.48130    0.87730    1.000
    H11      H        0.87890    0.43270    0.87890    1.000
    H12      H        0.85990    0.51590    0.88210    1.000
    C14      C        0.95240    0.49090    0.94180    1.000
    N3       N        0.43580    0.00770    0.19380    1.000
    C15      C        0.48750    0.95730    0.20340    1.000
    H13      H        0.50250    0.92980    0.16360    1.000
    C16      C        0.51920    0.94480    0.26950    1.000
    H14      H        0.55560    0.90980    0.27370    1.000
    O3       O        0.52800    0.97480    0.39340    1.000
    C17      C        0.49720    0.98460    0.33190    1.000
    C18      C        0.44070    0.03790    0.32060    1.000
    H15      H        0.42340    0.06560    0.35930    1.000
    C19      C        0.41330    0.04710    0.25340    1.000
    H16      H        0.37710    0.08200    0.24690    1.000
    C20      C        0.39950    0.01870    0.12270    1.000
    H17      H        0.37890    0.06730    0.12110    1.000
    H18      H        0.35990    0.98410    0.11790    1.000
    C21      C        0.45240    0.00910    0.05820    1.000
    N4       N        0.06420    0.99230    0.69380    1.000
    C22      C        0.01250    0.04270    0.70340    1.000
    H19      H        0.99750    0.07020    0.66360    1.000
    C23      C        0.98080    0.05520    0.76950    1.000
    H20      H        0.94440    0.09020    0.77370    1.000
    O4       O        0.97200    0.02520    0.89340    1.000
    C24      C        0.00280    0.01540    0.83190    1.000
    C25      C        0.05930    0.96210    0.82060    1.000
    H21      H        0.07660    0.93440    0.85930    1.000
    C26      C        0.08670    0.95290    0.75340    1.000
    H22      H        0.12290    0.91800    0.74690    1.000
    C27      C        0.10050    0.98130    0.62270    1.000
    H23      H        0.12110    0.93270    0.62110    1.000
    H24      H        0.14010    0.01590    0.61790    1.000
    C28      C        0.04760    0.99090    0.55820    1.000
    N5       N        0.30620    0.56420    0.50770    1.000
    C29      C        0.29660    0.51250    0.45730    1.000
    H25      H        0.33640    0.49750    0.42980    1.000
    C30      C        0.23050    0.48080    0.44480    1.000
    H26      H        0.22630    0.44440    0.40980    1.000
    O5       O        0.10660    0.47200    0.47480    1.000
    C31      C        0.16810    0.50280    0.48460    1.000
    C32      C        0.17940    0.55930    0.53790    1.000
    H27      H        0.14070    0.57660    0.56560    1.000
    C33      C        0.24660    0.58670    0.54710    1.000
    H28      H        0.25310    0.62290    0.58200    1.000
    C34      C        0.37730    0.60050    0.51870    1.000
    H29      H        0.37890    0.62110    0.56730    1.000
    H30      H        0.38210    0.64010    0.48410    1.000
    C35      C        0.44180    0.54760    0.50910    1.000
    N6       N        0.80620    0.93580    0.49230    1.000
    C36      C        0.79660    0.98750    0.54270    1.000
    H31      H        0.83640    0.00250    0.57020    1.000
    C37      C        0.73050    0.01920    0.55520    1.000
    H32      H        0.72630    0.05560    0.59020    1.000
    O6       O        0.60660    0.02800    0.52520    1.000
    C38      C        0.66810    0.99720    0.51540    1.000
    C39      C        0.67940    0.94070    0.46210    1.000
    H33      H        0.64070    0.92340    0.43440    1.000
    C40      C        0.74660    0.91330    0.45290    1.000
    H34      H        0.75310    0.87710    0.41800    1.000
    C41      C        0.87730    0.89950    0.48130    1.000
    H35      H        0.87890    0.87890    0.43270    1.000
    H36      H        0.88210    0.85990    0.51590    1.000
    C42      C        0.94180    0.95240    0.49090    1.000
    N7       N        0.19380    0.43580    0.00770    1.000
    C43      C        0.20340    0.48750    0.95730    1.000
    H37      H        0.16360    0.50250    0.92980    1.000
    C44      C        0.26950    0.51920    0.94480    1.000
    H38      H        0.27370    0.55560    0.90980    1.000
    O7       O        0.39340    0.52800    0.97480    1.000
    C45      C        0.33190    0.49720    0.98460    1.000
    C46      C        0.32060    0.44070    0.03790    1.000
    H39      H        0.35930    0.42340    0.06560    1.000
    C47      C        0.25340    0.41330    0.04710    1.000
    H40      H        0.24690    0.37710    0.08200    1.000
    C48      C        0.12270    0.39950    0.01870    1.000
    H41      H        0.12110    0.37890    0.06730    1.000
    H42      H        0.11790    0.35990    0.98410    1.000
    C49      C        0.05820    0.45240    0.00910    1.000
    N8       N        0.69380    0.06420    0.99230    1.000
    C50      C        0.70340    0.01250    0.04270    1.000
    H43      H        0.66360    0.99750    0.07020    1.000
    C51      C        0.76950    0.98080    0.05520    1.000
    H44      H        0.77370    0.94440    0.09020    1.000
    O8       O        0.89340    0.97200    0.02520    1.000
    C52      C        0.83190    0.00280    0.01540    1.000
    C53      C        0.82060    0.05930    0.96210    1.000
    H45      H        0.85930    0.07660    0.93440    1.000
    C54      C        0.75340    0.08670    0.95290    1.000
    H46      H        0.74690    0.12290    0.91800    1.000
    C55      C        0.62270    0.10050    0.98130    1.000
    H47      H        0.62110    0.12110    0.93270    1.000
    H48      H        0.61790    0.14010    0.01590    1.000
    C56      C        0.55820    0.04760    0.99090    1.000
    N9       N        0.50770    0.30620    0.56420    1.000
    C57      C        0.45730    0.29660    0.51250    1.000
    H49      H        0.42980    0.33640    0.49750    1.000
    C58      C        0.44480    0.23050    0.48080    1.000
    H50      H        0.40980    0.22630    0.44440    1.000
    O9       O        0.47480    0.10660    0.47200    1.000
    C59      C        0.48460    0.16810    0.50280    1.000
    C60      C        0.53790    0.17940    0.55930    1.000
    H51      H        0.56560    0.14070    0.57660    1.000
    C61      C        0.54710    0.24660    0.58670    1.000
    H52      H        0.58200    0.25310    0.62290    1.000
    C62      C        0.51870    0.37730    0.60050    1.000
    H53      H        0.56730    0.37890    0.62110    1.000
    H54      H        0.48410    0.38210    0.64010    1.000
    C63      C        0.50910    0.44180    0.54760    1.000
    N10      N        0.49230    0.80620    0.93580    1.000
    C64      C        0.54270    0.79660    0.98750    1.000
    H55      H        0.57020    0.83640    0.00250    1.000
    C65      C        0.55520    0.73050    0.01920    1.000
    H56      H        0.59020    0.72630    0.05560    1.000
    O10      O        0.52520    0.60660    0.02800    1.000
    C66      C        0.51540    0.66810    0.99720    1.000
    C67      C        0.46210    0.67940    0.94070    1.000
    H57      H        0.43440    0.64070    0.92340    1.000
    C68      C        0.45290    0.74660    0.91330    1.000
    H58      H        0.41800    0.75310    0.87710    1.000
    C69      C        0.48130    0.87730    0.89950    1.000
    H59      H        0.43270    0.87890    0.87890    1.000
    H60      H        0.51590    0.88210    0.85990    1.000
    C70      C        0.49090    0.94180    0.95240    1.000
    N11      N        0.00770    0.19380    0.43580    1.000
    C71      C        0.95730    0.20340    0.48750    1.000
    H61      H        0.92980    0.16360    0.50250    1.000
    C72      C        0.94480    0.26950    0.51920    1.000
    H62      H        0.90980    0.27370    0.55560    1.000
    O11      O        0.97480    0.39340    0.52800    1.000
    C73      C        0.98460    0.33190    0.49720    1.000
    C74      C        0.03790    0.32060    0.44070    1.000
    H63      H        0.06560    0.35930    0.42340    1.000
    C75      C        0.04710    0.25340    0.41330    1.000
    H64      H        0.08200    0.24690    0.37710    1.000
    C76      C        0.01870    0.12270    0.39950    1.000
    H65      H        0.06730    0.12110    0.37890    1.000
    H66      H        0.98410    0.11790    0.35990    1.000
    C77      C        0.00910    0.05820    0.45240    1.000
    N12      N        0.99230    0.69380    0.06420    1.000
    C78      C        0.04270    0.70340    0.01250    1.000
    H67      H        0.07020    0.66360    0.99750    1.000
    C79      C        0.05520    0.76950    0.98080    1.000
    H68      H        0.09020    0.77370    0.94440    1.000
    O12      O        0.02520    0.89340    0.97200    1.000
    C80      C        0.01540    0.83190    0.00280    1.000
    C81      C        0.96210    0.82060    0.05930    1.000
    H69      H        0.93440    0.85930    0.07660    1.000
    C82      C        0.95290    0.75340    0.08670    1.000
    H70      H        0.91800    0.74690    0.12290    1.000
    C83      C        0.98130    0.62270    0.10050    1.000
    H71      H        0.93270    0.62110    0.12110    1.000
    H72      H        0.01590    0.61790    0.14010    1.000
    C84      C        0.99090    0.55820    0.04760    1.000
    N13      N        0.43580    0.49230    0.69380    1.000
    C85      C        0.48750    0.54270    0.70340    1.000
    H73      H        0.50250    0.57020    0.66360    1.000
    C86      C        0.51920    0.55520    0.76950    1.000
    H74      H        0.55560    0.59020    0.77370    1.000
    O13      O        0.52800    0.52520    0.89340    1.000
    C87      C        0.49720    0.51540    0.83190    1.000
    C88      C        0.44070    0.46210    0.82060    1.000
    H75      H        0.42340    0.43440    0.85930    1.000
    C89      C        0.41330    0.45290    0.75340    1.000
    H76      H        0.37710    0.41800    0.74690    1.000
    C90      C        0.39950    0.48130    0.62270    1.000
    H77      H        0.37890    0.43270    0.62110    1.000
    H78      H        0.35990    0.51590    0.61790    1.000
    C91      C        0.45240    0.49090    0.55820    1.000
    N14      N        0.06420    0.50770    0.19380    1.000
    C92      C        0.01250    0.45730    0.20340    1.000
    H79      H        0.99750    0.42980    0.16360    1.000
    C93      C        0.98080    0.44480    0.26950    1.000
    H80      H        0.94440    0.40980    0.27370    1.000
    O14      O        0.97200    0.47480    0.39340    1.000
    C94      C        0.00280    0.48460    0.33190    1.000
    C95      C        0.05930    0.53790    0.32060    1.000
    H81      H        0.07660    0.56560    0.35930    1.000
    C96      C        0.08670    0.54710    0.25340    1.000
    H82      H        0.12290    0.58200    0.24690    1.000
    C97      C        0.10050    0.51870    0.12270    1.000
    H83      H        0.12110    0.56730    0.12110    1.000
    H84      H        0.14010    0.48410    0.11790    1.000
    C98      C        0.04760    0.50910    0.05820    1.000
    N15      N        0.56420    0.99230    0.80620    1.000
    C99      C        0.51250    0.04270    0.79660    1.000
    H85      H        0.49750    0.07020    0.83640    1.000
    C100     C        0.48080    0.05520    0.73050    1.000
    H86      H        0.44440    0.09020    0.72630    1.000
    O15      O        0.47200    0.02520    0.60660    1.000
    C101     C        0.50280    0.01540    0.66810    1.000
    C102     C        0.55930    0.96210    0.67940    1.000
    H87      H        0.57660    0.93440    0.64070    1.000
    C103     C        0.58670    0.95290    0.74660    1.000
    H88      H        0.62290    0.91800    0.75310    1.000
    C104     C        0.60050    0.98130    0.87730    1.000
    H89      H        0.62110    0.93270    0.87890    1.000
    H90      H        0.64010    0.01590    0.88210    1.000
    C105     C        0.54760    0.99090    0.94180    1.000
    N16      N        0.93580    0.00770    0.30620    1.000
    C106     C        0.98750    0.95730    0.29660    1.000
    H91      H        0.00250    0.92980    0.33640    1.000
    C107     C        0.01920    0.94480    0.23050    1.000
    H92      H        0.05560    0.90980    0.22630    1.000
    O16      O        0.02800    0.97480    0.10660    1.000
    C108     C        0.99720    0.98460    0.16810    1.000
    C109     C        0.94070    0.03790    0.17940    1.000
    H93      H        0.92340    0.06560    0.14070    1.000
    C110     C        0.91330    0.04710    0.24660    1.000
    H94      H        0.87710    0.08200    0.25310    1.000
    C111     C        0.89950    0.01870    0.37730    1.000
    H95      H        0.87890    0.06730    0.37890    1.000
    H96      H        0.85990    0.98410    0.38210    1.000
    C112     C        0.95240    0.00910    0.44180    1.000
    N17      N        0.69380    0.43580    0.49230    1.000
    C113     C        0.70340    0.48750    0.54270    1.000
    H97      H        0.66360    0.50250    0.57020    1.000
    C114     C        0.76950    0.51920    0.55520    1.000
    H98      H        0.77370    0.55560    0.59020    1.000
    O17      O        0.89340    0.52800    0.52520    1.000
    C115     C        0.83190    0.49720    0.51540    1.000
    C116     C        0.82060    0.44070    0.46210    1.000
    H99      H        0.85930    0.42340    0.43440    1.000
    C117     C        0.75340    0.41330    0.45290    1.000
    H100     H        0.74690    0.37710    0.41800    1.000
    C118     C        0.62270    0.39950    0.48130    1.000
    H101     H        0.62110    0.37890    0.43270    1.000
    H102     H        0.61790    0.35990    0.51590    1.000
    C119     C        0.55820    0.45240    0.49090    1.000
    N18      N        0.19380    0.06420    0.50770    1.000
    C120     C        0.20340    0.01250    0.45730    1.000
    H103     H        0.16360    0.99750    0.42980    1.000
    C121     C        0.26950    0.98080    0.44480    1.000
    H104     H        0.27370    0.94440    0.40980    1.000
    O18      O        0.39340    0.97200    0.47480    1.000
    C122     C        0.33190    0.00280    0.48460    1.000
    C123     C        0.32060    0.05930    0.53790    1.000
    H105     H        0.35930    0.07660    0.56560    1.000
    C124     C        0.25340    0.08670    0.54710    1.000
    H106     H        0.24690    0.12290    0.58200    1.000
    C125     C        0.12270    0.10050    0.51870    1.000
    H107     H        0.12110    0.12110    0.56730    1.000
    H108     H        0.11790    0.14010    0.48410    1.000
    C126     C        0.05820    0.04760    0.50910    1.000
    N19      N        0.80620    0.56420    0.99230    1.000
    C127     C        0.79660    0.51250    0.04270    1.000
    H109     H        0.83640    0.49750    0.07020    1.000
    C128     C        0.73050    0.48080    0.05520    1.000
    H110     H        0.72630    0.44440    0.09020    1.000
    O19      O        0.60660    0.47200    0.02520    1.000
    C129     C        0.66810    0.50280    0.01540    1.000
    C130     C        0.67940    0.55930    0.96210    1.000
    H111     H        0.64070    0.57660    0.93440    1.000
    C131     C        0.74660    0.58670    0.95290    1.000
    H112     H        0.75310    0.62290    0.91800    1.000
    C132     C        0.87730    0.60050    0.98130    1.000
    H113     H        0.87890    0.62110    0.93270    1.000
    H114     H        0.88210    0.64010    0.01590    1.000
    C133     C        0.94180    0.54760    0.99090    1.000
    N20      N        0.30620    0.93580    0.00770    1.000
    C134     C        0.29660    0.98750    0.95730    1.000
    H115     H        0.33640    0.00250    0.92980    1.000
    C135     C        0.23050    0.01920    0.94480    1.000
    H116     H        0.22630    0.05560    0.90980    1.000
    O20      O        0.10660    0.02800    0.97480    1.000
    C136     C        0.16810    0.99720    0.98460    1.000
    C137     C        0.17940    0.94070    0.03790    1.000
    H117     H        0.14070    0.92340    0.06560    1.000
    C138     C        0.24660    0.91330    0.04710    1.000
    H118     H        0.25310    0.87710    0.08200    1.000
    C139     C        0.37730    0.89950    0.01870    1.000
    H119     H        0.37890    0.87890    0.06730    1.000
    H120     H        0.38210    0.85990    0.98410    1.000
    C140     C        0.44180    0.95240    0.00910    1.000
    N21      N        0.49230    0.69380    0.43580    1.000
    C141     C        0.54270    0.70340    0.48750    1.000
    H121     H        0.57020    0.66360    0.50250    1.000
    C142     C        0.55520    0.76950    0.51920    1.000
    H122     H        0.59020    0.77370    0.55560    1.000
    O21      O        0.52520    0.89340    0.52800    1.000
    C143     C        0.51540    0.83190    0.49720    1.000
    C144     C        0.46210    0.82060    0.44070    1.000
    H123     H        0.43440    0.85930    0.42340    1.000
    C145     C        0.45290    0.75340    0.41330    1.000
    H124     H        0.41800    0.74690    0.37710    1.000
    C146     C        0.48130    0.62270    0.39950    1.000
    H125     H        0.43270    0.62110    0.37890    1.000
    H126     H        0.51590    0.61790    0.35990    1.000
    C147     C        0.49090    0.55820    0.45240    1.000
    N22      N        0.50770    0.19380    0.06420    1.000
    C148     C        0.45730    0.20340    0.01250    1.000
    H127     H        0.42980    0.16360    0.99750    1.000
    C149     C        0.44480    0.26950    0.98080    1.000
    H128     H        0.40980    0.27370    0.94440    1.000
    O22      O        0.47480    0.39340    0.97200    1.000
    C150     C        0.48460    0.33190    0.00280    1.000
    C151     C        0.53790    0.32060    0.05930    1.000
    H129     H        0.56560    0.35930    0.07660    1.000
    C152     C        0.54710    0.25340    0.08670    1.000
    H130     H        0.58200    0.24690    0.12290    1.000
    C153     C        0.51870    0.12270    0.10050    1.000
    H131     H        0.56730    0.12110    0.12110    1.000
    H132     H        0.48410    0.11790    0.14010    1.000
    C154     C        0.50910    0.05820    0.04760    1.000
    N23      N        0.99230    0.80620    0.56420    1.000
    C155     C        0.04270    0.79660    0.51250    1.000
    H133     H        0.07020    0.83640    0.49750    1.000
    C156     C        0.05520    0.73050    0.48080    1.000
    H134     H        0.09020    0.72630    0.44440    1.000
    O23      O        0.02520    0.60660    0.47200    1.000
    C157     C        0.01540    0.66810    0.50280    1.000
    C158     C        0.96210    0.67940    0.55930    1.000
    H135     H        0.93440    0.64070    0.57660    1.000
    C159     C        0.95290    0.74660    0.58670    1.000
    H136     H        0.91800    0.75310    0.62290    1.000
    C160     C        0.98130    0.87730    0.60050    1.000
    H137     H        0.93270    0.87890    0.62110    1.000
    H138     H        0.01590    0.88210    0.64010    1.000
    C161     C        0.99090    0.94180    0.54760    1.000
    N24      N        0.00770    0.30620    0.93580    1.000
    C162     C        0.95730    0.29660    0.98750    1.000
    H139     H        0.92980    0.33640    0.00250    1.000
    C163     C        0.94480    0.23050    0.01920    1.000
    H140     H        0.90980    0.22630    0.05560    1.000
    O24      O        0.97480    0.10660    0.02800    1.000
    C164     C        0.98460    0.16810    0.99720    1.000
    C165     C        0.03790    0.17940    0.94070    1.000
    H141     H        0.06560    0.14070    0.92340    1.000
    C166     C        0.04710    0.24660    0.91330    1.000
    H142     H        0.08200    0.25310    0.87710    1.000
    C167     C        0.01870    0.37730    0.89950    1.000
    H143     H        0.06730    0.37890    0.87890    1.000
    H144     H        0.98410    0.38210    0.85990    1.000
    C168     C        0.00910    0.44180    0.95240    1.000
    Co1      Co       0.50000    0.50000    0.00000    1.000
    Co2      Co       0.00000    0.50000    0.50000    1.000
    Co3      Co       0.50000    0.00000    0.50000    1.000
    Co4      Co       0.00000    0.00000    0.00000    1.000
