# CIF file generated by openbabel 3.1.0, see https://openbabel.org
data_I
_chemical_name_common 'image0'
_cell_length_a 5.2038
_cell_length_b 14.516
_cell_length_c 10.295
_cell_angle_alpha 90
_cell_angle_beta 96.14
_cell_angle_gamma 90
_space_group_name_H-M_alt 'P 1'
_space_group_name_Hall 'P 1'
loop_
    _symmetry_equiv_pos_as_xyz
    x,y,z
loop_
    _atom_site_label
    _atom_site_type_symbol
    _atom_site_fract_x
    _atom_site_fract_y
    _atom_site_fract_z
    _atom_site_occupancy
    O1       O        0.38700    0.04630    0.59410    1.000
    O2       O        0.00400    0.11530    0.58390    1.000
    N1       N        0.56400    0.32800    0.87090    1.000
    C1       C        0.67900    0.24760    0.86950    1.000
    H1       H        0.83370    0.23770    0.92570    1.000
    C2       C        0.34100    0.18800    0.70860    1.000
    C3       C        0.22500    0.11130    0.62440    1.000
    C4       C        0.23100    0.27010    0.71010    1.000
    H2       H        0.07990    0.28140    0.65180    1.000
    C5       C        0.57900    0.17560    0.78680    1.000
    H3       H        0.67120    0.11930    0.78360    1.000
    C6       C        0.32700    0.34150    0.79440    1.000
    H4       H        0.23420    0.39750    0.79940    1.000
    Li1      Li       0.68500    0.43430    0.99800    1.000
    O3       O        0.61300    0.54630    0.90590    1.000
    O4       O        0.99600    0.61530    0.91610    1.000
    N2       N        0.43600    0.82800    0.62910    1.000
    C7       C        0.32100    0.74760    0.63050    1.000
    H5       H        0.16630    0.73770    0.57430    1.000
    C8       C        0.65900    0.68800    0.79140    1.000
    C9       C        0.77500    0.61130    0.87560    1.000
    C10      C        0.76900    0.77010    0.78990    1.000
    H6       H        0.92010    0.78140    0.84820    1.000
    C11      C        0.42100    0.67560    0.71320    1.000
    H7       H        0.32880    0.61930    0.71640    1.000
    C12      C        0.67300    0.84150    0.70560    1.000
    H8       H        0.76580    0.89750    0.70060    1.000
    Li2      Li       0.31500    0.93430    0.50200    1.000
    O5       O        0.61300    0.95370    0.40590    1.000
    O6       O        0.99600    0.88470    0.41610    1.000
    N3       N        0.43600    0.67200    0.12910    1.000
    C13      C        0.32100    0.75240    0.13050    1.000
    H9       H        0.16630    0.76230    0.07430    1.000
    C14      C        0.65900    0.81200    0.29140    1.000
    C15      C        0.77500    0.88870    0.37560    1.000
    C16      C        0.76900    0.72990    0.28990    1.000
    H10      H        0.92010    0.71860    0.34820    1.000
    C17      C        0.42100    0.82440    0.21320    1.000
    H11      H        0.32880    0.88070    0.21640    1.000
    C18      C        0.67300    0.65850    0.20560    1.000
    H12      H        0.76580    0.60250    0.20060    1.000
    Li3      Li       0.31500    0.56570    0.00200    1.000
    O7       O        0.38700    0.45370    0.09410    1.000
    O8       O        0.00400    0.38470    0.08390    1.000
    N4       N        0.56400    0.17200    0.37090    1.000
    C19      C        0.67900    0.25240    0.36950    1.000
    H13      H        0.83370    0.26230    0.42570    1.000
    C20      C        0.34100    0.31200    0.20860    1.000
    C21      C        0.22500    0.38870    0.12440    1.000
    C22      C        0.23100    0.22990    0.21010    1.000
    H14      H        0.07990    0.21860    0.15180    1.000
    C23      C        0.57900    0.32440    0.28680    1.000
    H15      H        0.67120    0.38070    0.28360    1.000
    C24      C        0.32700    0.15850    0.29440    1.000
    H16      H        0.23420    0.10250    0.29940    1.000
    Li4      Li       0.68500    0.06570    0.49800    1.000
