# CIF file generated by openbabel 3.1.0, see https://openbabel.org
data_I
_chemical_name_common 'MACKAE_clean'
_cell_length_a 14.4537
_cell_length_b 14.4537
_cell_length_c 14.4537
_cell_angle_alpha 109.471
_cell_angle_beta 109.471
_cell_angle_gamma 109.471
_space_group_name_H-M_alt 'P 1'
_space_group_name_Hall 'P 1'
loop_
    _symmetry_equiv_pos_as_xyz
    x,y,z
loop_
    _atom_site_label
    _atom_site_type_symbol
    _atom_site_fract_x
    _atom_site_fract_y
    _atom_site_fract_z
    _atom_site_occupancy
    U1       U        0.61556    0.99042    0.15461    1.000
    U2       U        0.83581    0.46095    0.84539    1.000
    U3       U        0.16419    0.00958    0.62514    1.000
    U4       U        0.38444    0.53905    0.37486    1.000
    U5       U        0.62514    0.16419    0.00958    1.000
    U6       U        0.37486    0.38444    0.53905    1.000
    U7       U        0.15461    0.61556    0.99042    1.000
    U8       U        0.84539    0.83581    0.46095    1.000
    U9       U        0.46095    0.84539    0.83581    1.000
    U10      U        0.99042    0.15461    0.61556    1.000
    U11      U        0.53905    0.37486    0.38444    1.000
    U12      U        0.00958    0.62514    0.16419    1.000
    C1       C        0.72810    0.16820    0.43670    1.000
    C2       C        0.79110    0.22730    0.56000    1.000
    C3       C        0.73150    0.29140    0.56330    1.000
    C4       C        0.66730    0.23110    0.44000    1.000
    C5       C        0.26850    0.83180    0.55990    1.000
    C6       C        0.33270    0.77270    0.56380    1.000
    C7       C        0.27190    0.70860    0.44010    1.000
    C8       C        0.20890    0.76890    0.43620    1.000
    C9       C        0.55990    0.26850    0.83180    1.000
    C10      C        0.56380    0.33270    0.77270    1.000
    C11      C        0.44010    0.27190    0.70860    1.000
    C12      C        0.43620    0.20890    0.76890    1.000
    C13      C        0.43670    0.72810    0.16820    1.000
    C14      C        0.56000    0.79110    0.22730    1.000
    C15      C        0.56330    0.73150    0.29140    1.000
    C16      C        0.44000    0.66730    0.23110    1.000
    C17      C        0.29140    0.56330    0.73150    1.000
    C18      C        0.23110    0.44000    0.66730    1.000
    C19      C        0.16820    0.43670    0.72810    1.000
    C20      C        0.22730    0.56000    0.79110    1.000
    C21      C        0.70860    0.44010    0.27190    1.000
    C22      C        0.76890    0.43620    0.20890    1.000
    C23      C        0.83180    0.55990    0.26850    1.000
    C24      C        0.77270    0.56380    0.33270    1.000
    O1       O        0.49030    0.80180    0.98590    1.000
    O2       O        0.86600    0.22790    0.63470    1.000
    O3       O        0.73040    0.09540    0.36040    1.000
    O4       O        0.81590    0.50440    0.01410    1.000
    O5       O        0.59320    0.23130    0.36530    1.000
    O6       O        0.73500    0.37000    0.63960    1.000
    O7       O        0.18410    0.19820    0.68850    1.000
    O8       O        0.40680    0.77210    0.63810    1.000
    O9       O        0.26500    0.90460    0.63500    1.000
    O10      O        0.50970    0.49560    0.31150    1.000
    O11      O        0.13400    0.76870    0.36190    1.000
    O12      O        0.26960    0.63000    0.36500    1.000
    O13      O        0.68850    0.18410    0.19820    1.000
    O14      O        0.63810    0.40680    0.77210    1.000
    O15      O        0.63500    0.26500    0.90460    1.000
    O16      O        0.31150    0.50970    0.49560    1.000
    O17      O        0.36190    0.13400    0.76870    1.000
    O18      O        0.36500    0.26960    0.63000    1.000
    O19      O        0.98590    0.49030    0.80180    1.000
    O20      O        0.63470    0.86600    0.22790    1.000
    O21      O        0.36040    0.73040    0.09540    1.000
    O22      O        0.01410    0.81590    0.50440    1.000
    O23      O        0.36530    0.59320    0.23130    1.000
    O24      O        0.63960    0.73500    0.37000    1.000
    O25      O        0.50440    0.01410    0.81590    1.000
    O26      O        0.23130    0.36530    0.59320    1.000
    O27      O        0.37000    0.63960    0.73500    1.000
    O28      O        0.80180    0.98590    0.49030    1.000
    O29      O        0.22790    0.63470    0.86600    1.000
    O30      O        0.09540    0.36040    0.73040    1.000
    O31      O        0.49560    0.31150    0.50970    1.000
    O32      O        0.76870    0.36190    0.13400    1.000
    O33      O        0.63000    0.36500    0.26960    1.000
    O34      O        0.19820    0.68850    0.18410    1.000
    O35      O        0.77210    0.63810    0.40680    1.000
    O36      O        0.90460    0.63500    0.26500    1.000
    O37      O        0.54080    0.00000    0.00000    1.000
    O38      O        0.00000    0.54080    0.00000    1.000
    O39      O        0.00000    0.00000    0.54080    1.000
    O40      O        0.45920    0.45920    0.45920    1.000
