# CIF file generated by openbabel 3.1.0, see https://openbabel.org
data_I
_chemical_name_common 'IFENOY01_clean'
_cell_length_a 5.2351
_cell_length_b 18.9281
_cell_length_c 18.9281
_cell_angle_alpha 88.9042
_cell_angle_beta 82.0512
_cell_angle_gamma 82.0513
_space_group_name_H-M_alt 'P 1'
_space_group_name_Hall 'P 1'
loop_
    _symmetry_equiv_pos_as_xyz
    x,y,z
loop_
    _atom_site_label
    _atom_site_type_symbol
    _atom_site_fract_x
    _atom_site_fract_y
    _atom_site_fract_z
    _atom_site_occupancy
    Zn1      Zn       0.29866    0.51149    0.05905    1.000
    Zn2      Zn       0.86920    0.48851    0.94095    1.000
    Zn3      Zn       0.64229    0.05905    0.48851    1.000
    Zn4      Zn       0.18985    0.94095    0.51149    1.000
    H5       H        0.95930    0.59710    0.18770    1.000
    H6       H        0.66080    0.63240    0.00760    1.000
    H7       H        0.98970    0.70740    0.95120    1.000
    H8       H        0.14850    0.81560    0.94160    1.000
    H9       H        0.94890    0.91200    0.01460    1.000
    H10      H        0.59440    0.90100    0.09740    1.000
    H11      H        0.28270    0.82650    0.16170    1.000
    H12      H        0.90500    0.63750    0.29890    1.000
    H13      H        0.71690    0.69210    0.40970    1.000
    H14      H        0.62890    0.88240    0.30940    1.000
    H15      H        0.83840    0.82730    0.20230    1.000
    H16      H        0.74410    0.40290    0.81230    1.000
    H17      H        0.30080    0.36760    0.99240    1.000
    H18      H        0.64830    0.29260    0.04880    1.000
    H19      H        0.90570    0.18440    0.05840    1.000
    H20      H        0.87550    0.08800    0.98540    1.000
    H21      H        0.59280    0.09900    0.90260    1.000
    H22      H        0.27090    0.17350    0.83830    1.000
    H23      H        0.84140    0.36250    0.70110    1.000
    H24      H        0.81870    0.30790    0.59030    1.000
    H25      H        0.82070    0.11760    0.69060    1.000
    H26      H        0.86800    0.17270    0.79770    1.000
    H27      H        0.85300    0.18770    0.40290    1.000
    H28      H        0.33160    0.00760    0.36760    1.000
    H29      H        0.05910    0.95120    0.29260    1.000
    H30      H        0.90990    0.94160    0.18440    1.000
    H31      H        0.03650    0.01460    0.08800    1.000
    H32      H        0.30820    0.09740    0.09900    1.000
    H33      H        0.55560    0.16170    0.17350    1.000
    H34      H        0.79610    0.29890    0.36250    1.000
    H35      H        0.87340    0.40970    0.30790    1.000
    H36      H        0.06170    0.30940    0.11760    1.000
    H37      H        0.95930    0.20230    0.17270    1.000
    H38      H        0.44360    0.81230    0.59710    1.000
    H39      H        0.70680    0.99240    0.63240    1.000
    H40      H        0.30290    0.04880    0.70740    1.000
    H41      H        0.03590    0.05840    0.81560    1.000
    H42      H        0.13910    0.98540    0.91200    1.000
    H43      H        0.50460    0.90260    0.90100    1.000
    H44      H        0.89080    0.83830    0.82650    1.000
    H45      H        0.45750    0.70110    0.63750    1.000
    H46      H        0.59100    0.59030    0.69210    1.000
    H47      H        0.48870    0.69060    0.88240    1.000
    H48      H        0.33430    0.79770    0.82730    1.000
    C49      C        0.07534    0.62713    0.16419    1.000
    C50      C        0.38017    0.66560    0.09026    1.000
    C51      C        0.58637    0.67147    0.03799    1.000
    C52      C        0.68300    0.73726    0.03114    1.000
    C53      C        0.90640    0.74607    0.98093    1.000
    C54      C        0.00077    0.81001    0.97545    1.000
    C55      C        0.88149    0.86777    0.01945    1.000
    C56      C        0.67252    0.86126    0.06850    1.000
    C57      C        0.56733    0.79516    0.07738    1.000
    C58      C        0.35934    0.78794    0.13098    1.000
    C59      C        0.27093    0.72293    0.13721    1.000
    C60      C        0.92164    0.72954    0.24558    1.000
    C61      C        0.86220    0.68790    0.30250    1.000
    C62      C        0.73680    0.71930    0.36710    1.000
    C63      C        0.63941    0.79396    0.36622    1.000
    C64      C        0.68600    0.83250    0.30830    1.000
    C65      C        0.81919    0.80037    0.24505    1.000
    C66      C        0.47910    0.83000    0.43180    1.000
    C67      C        0.86666    0.37287    0.83581    1.000
    C68      C        0.13603    0.33440    0.90974    1.000
    C69      C        0.29583    0.32853    0.96201    1.000
    C70      C        0.45140    0.26274    0.96886    1.000
    C71      C        0.63340    0.25393    0.01907    1.000
    C72      C        0.78623    0.18999    0.02455    1.000
    C73      C        0.76871    0.13223    0.98055    1.000
    C74      C        0.60228    0.13874    0.93150    1.000
    C75      C        0.43987    0.20484    0.92262    1.000
    C76      C        0.27826    0.21206    0.86902    1.000
    C77      C        0.13107    0.27707    0.86279    1.000
    C78      C        0.89676    0.27046    0.75442    1.000
    C79      C        0.85260    0.31210    0.69750    1.000
    C80      C        0.82320    0.28070    0.63290    1.000
    C81      C        0.79959    0.20604    0.63378    1.000
    C82      C        0.82680    0.16750    0.69170    1.000
    C83      C        0.86461    0.19963    0.75495    1.000
    C84      C        0.74090    0.17000    0.56820    1.000
    C85      C        0.76047    0.16419    0.37287    1.000
    C86      C        0.52957    0.09026    0.33440    1.000
    C87      C        0.37564    0.03799    0.32853    1.000
    C88      C        0.28586    0.03114    0.26274    1.000
    C89      C        0.11267    0.98093    0.25393    1.000
    C90      C        0.02378    0.97545    0.18999    1.000
    C91      C        0.09906    0.01945    0.13223    1.000
    C92      C        0.25898    0.06850    0.13874    1.000
    C93      C        0.35529    0.07738    0.20484    1.000
    C94      C        0.50968    0.13098    0.21206    1.000
    C95      C        0.59186    0.13721    0.27707    1.000
    C96      C        0.83278    0.24558    0.27046    1.000
    C97      C        0.83530    0.30250    0.31210    1.000
    C98      C        0.89610    0.36710    0.28070    1.000
    C99      C        0.99437    0.36622    0.20604    1.000
    C100     C        0.00570    0.30830    0.16750    1.000
    C101     C        0.93576    0.24505    0.19963    1.000
    C102     C        0.08910    0.43180    0.17000    1.000
    C103     C        0.29753    0.83581    0.62713    1.000
    C104     C        0.95423    0.90974    0.66560    1.000
    C105     C        0.74216    0.96201    0.67147    1.000
    C106     C        0.57974    0.96886    0.73726    1.000
    C107     C        0.34753    0.01907    0.74607    1.000
    C108     C        0.18922    0.02455    0.81001    1.000
    C109     C        0.25074    0.98055    0.86777    1.000
    C110     C        0.46622    0.93150    0.86126    1.000
    C111     C        0.63751    0.92262    0.79516    1.000
    C112     C        0.85272    0.86902    0.78794    1.000
    C113     C        0.00614    0.86279    0.72293    1.000
    C114     C        0.34882    0.75442    0.72954    1.000
    C115     C        0.44990    0.69750    0.68790    1.000
    C116     C        0.54390    0.63290    0.71930    1.000
    C117     C        0.56663    0.63378    0.79396    1.000
    C118     C        0.48150    0.69170    0.83250    1.000
    C119     C        0.38044    0.75495    0.80037    1.000
    C120     C        0.69090    0.56820    0.83000    1.000
    N121     N        0.25016    0.60678    0.10970    1.000
    N122     N        0.07667    0.69613    0.18373    1.000
    N123     N        0.96664    0.39322    0.89030    1.000
    N124     N        0.95653    0.30387    0.81627    1.000
    N125     N        0.64014    0.10970    0.39322    1.000
    N126     N        0.73960    0.18373    0.30387    1.000
    N127     N        0.14306    0.89030    0.60678    1.000
    N128     N        0.22720    0.81627    0.69613    1.000
    O129     O        0.16270    0.52511    0.97009    1.000
    O130     O        0.46113    0.88818    0.44316    1.000
    O131     O        0.46210    0.78180    0.48800    1.000
    O132     O        0.65790    0.47489    0.02991    1.000
    O133     O        0.79247    0.11182    0.55684    1.000
    O134     O        0.73190    0.21820    0.51200    1.000
    O135     O        0.86721    0.97009    0.47489    1.000
    O136     O        0.09571    0.44316    0.11182    1.000
    O137     O        0.04990    0.48800    0.21820    1.000
    O138     O        0.31219    0.02991    0.52511    1.000
    O139     O        0.65069    0.55684    0.88818    1.000
    O140     O        0.75610    0.51200    0.78180    1.000
    H141     H        0.65790    0.42205    0.03092    1.000
    H142     H        0.15642    0.07803    0.53015    1.000
    H143     H        0.16270    0.57795    0.96908    1.000
    H144     H        0.86721    0.91725    0.47590    1.000
