# CIF file generated by openbabel 3.1.0, see https://openbabel.org
data_I
_chemical_name_common 'image0'
_cell_length_a 9.398
_cell_length_b 15.307
_cell_length_c 16.751
_cell_angle_alpha 68.756
_cell_angle_beta 79.322
_cell_angle_gamma 89.276
_space_group_name_H-M_alt 'P 1'
_space_group_name_Hall 'P 1'
loop_
    _symmetry_equiv_pos_as_xyz
    x,y,z
loop_
    _atom_site_label
    _atom_site_type_symbol
    _atom_site_fract_x
    _atom_site_fract_y
    _atom_site_fract_z
    _atom_site_occupancy
    Nd1      Nd       0.00058    0.82258    0.10912    1.000
    Nd2      Nd       0.41556    0.32823    0.10791    1.000
    Nd3      Nd       0.11638    0.26122    0.52165    1.000
    O1       O        0.08220    0.80200    0.24240    1.000
    O2       O        0.10020    0.81600    0.36790    1.000
    O3       O        0.74840    0.86440    0.07110    1.000
    O4       O        0.74740    0.77910    0.20850    1.000
    O5       O        0.53280    0.17740    0.08640    1.000
    O6       O        0.35010    0.15970    0.19440    1.000
    O7       O        0.51410    0.60950    0.04550    1.000
    O8       O        0.46300    0.46550    0.13990    1.000
    O9       O        0.23650    0.40840    0.43930    1.000
    O10      O        0.23190    0.51830    0.49530    1.000
    O11      O        0.00920    0.65290    0.20370    1.000
    O12      O        0.90730    0.67610    0.09070    1.000
    O13      O        0.24890    0.30420    0.24710    1.000
    O14      O        0.10620    0.26480    0.37620    1.000
    O15      O        0.69150    0.37060    0.06500    1.000
    O16      O        0.60720    0.28700    0.20290    1.000
    O17      O        0.98430    0.10700    0.04320    1.000
    O18      O        0.92850    0.96150    0.13900    1.000
    O19      O        0.82430    0.02780    0.49560    1.000
    H1       H        0.78720    0.98750    0.54250    1.000
    O20      O        0.86850    0.90610    0.45600    1.000
    C1       C        0.14940    0.82460    0.29110    1.000
    C2       C        0.30050    0.87060    0.25050    1.000
    C3       C        0.42030    0.82350    0.22450    1.000
    C4       C        0.54790    0.87710    0.17530    1.000
    C5       C        0.55460    0.97460    0.15070    1.000
    H2       H        0.63840    0.00950    0.11540    1.000
    C6       C        0.43930    0.01980    0.17790    1.000
    C7       C        0.31130    0.96740    0.22970    1.000
    H3       H        0.23400    0.99720    0.25000    1.000
    C8       C        0.68710    0.83560    0.14960    1.000
    C9       C        0.44380    0.12530    0.15100    1.000
    C10      C        0.40510    0.71930    0.24340    1.000
    C11      C        0.44860    0.68490    0.17660    1.000
    H4       H        0.49000    0.72610    0.12090    1.000
    C12      C        0.43060    0.58990    0.19240    1.000
    C13      C        0.37030    0.52770    0.27680    1.000
    H5       H        0.36020    0.46380    0.28780    1.000
    C14      C        0.32580    0.56030    0.34350    1.000
    C15      C        0.34460    0.65710    0.32720    1.000
    H6       H        0.31670    0.67940    0.37230    1.000
    C16      C        0.47270    0.55090    0.12080    1.000
    C17      C        0.25970    0.49240    0.43350    1.000
    C18      C        0.94850    0.62120    0.15810    1.000
    C19      C        0.93480    0.51780    0.18050    1.000
    C20      C        0.02340    0.45960    0.23240    1.000
    H7       H        0.08750    0.48510    0.25530    1.000
    C21      C        0.01700    0.36280    0.25030    1.000
    C22      C        0.91520    0.32130    0.22160    1.000
    C23      C        0.82440    0.38040    0.17050    1.000
    C24      C        0.83790    0.47750    0.14820    1.000
    H8       H        0.78130    0.51590    0.11110    1.000
    C25      C        0.13310    0.30660    0.29490    1.000
    C26      C        0.70190    0.34150    0.14450    1.000
    C27      C        0.90810    0.21820    0.24140    1.000
    C28      C        0.92450    0.18200    0.17430    1.000
    H9       H        0.93770    0.22340    0.11660    1.000
    C29      C        0.92150    0.08710    0.19210    1.000
    C30      C        0.90160    0.02360    0.27860    1.000
    H10      H        0.90070    0.95930    0.29110    1.000
    C31      C        0.88360    0.05820    0.34470    1.000
    C32      C        0.88630    0.15380    0.32740    1.000
    H11      H        0.87340    0.17540    0.37340    1.000
    C33      C        0.94570    0.04850    0.11890    1.000
    C34      C        0.85900    0.98980    0.43830    1.000
    Nd4      Nd       0.99942    0.17742    0.89088    1.000
    Nd5      Nd       0.58444    0.67177    0.89209    1.000
    Nd6      Nd       0.88362    0.73878    0.47835    1.000
    O21      O        0.91780    0.19800    0.75760    1.000
    O22      O        0.89980    0.18400    0.63210    1.000
    O23      O        0.25160    0.13560    0.92890    1.000
    O24      O        0.25260    0.22090    0.79150    1.000
    O25      O        0.46720    0.82260    0.91360    1.000
    O26      O        0.64990    0.84030    0.80560    1.000
    O27      O        0.48590    0.39050    0.95450    1.000
    O28      O        0.53700    0.53450    0.86010    1.000
    O29      O        0.76350    0.59160    0.56070    1.000
    O30      O        0.76810    0.48170    0.50470    1.000
    O31      O        0.99080    0.34710    0.79630    1.000
    O32      O        0.09270    0.32390    0.90930    1.000
    O33      O        0.75110    0.69580    0.75290    1.000
    O34      O        0.89380    0.73520    0.62380    1.000
    O35      O        0.30850    0.62940    0.93500    1.000
    O36      O        0.39280    0.71300    0.79710    1.000
    O37      O        0.01570    0.89300    0.95680    1.000
    O38      O        0.07150    0.03850    0.86100    1.000
    O39      O        0.17570    0.97220    0.50440    1.000
    H12      H        0.21280    0.01250    0.45750    1.000
    O40      O        0.13150    0.09390    0.54400    1.000
    C35      C        0.85060    0.17540    0.70890    1.000
    C36      C        0.69950    0.12940    0.74950    1.000
    C37      C        0.57970    0.17650    0.77550    1.000
    C38      C        0.45210    0.12290    0.82470    1.000
    C39      C        0.44540    0.02540    0.84930    1.000
    H13      H        0.36160    0.99050    0.88460    1.000
    C40      C        0.56070    0.98020    0.82210    1.000
    C41      C        0.68870    0.03260    0.77030    1.000
    H14      H        0.76600    0.00280    0.75000    1.000
    C42      C        0.31290    0.16440    0.85040    1.000
    C43      C        0.55620    0.87470    0.84900    1.000
    C44      C        0.59490    0.28070    0.75660    1.000
    C45      C        0.55140    0.31510    0.82340    1.000
    H15      H        0.51000    0.27390    0.87910    1.000
    C46      C        0.56940    0.41010    0.80760    1.000
    C47      C        0.62970    0.47230    0.72320    1.000
    H16      H        0.63980    0.53620    0.71220    1.000
    C48      C        0.67420    0.43970    0.65650    1.000
    C49      C        0.65540    0.34290    0.67280    1.000
    H17      H        0.68330    0.32060    0.62770    1.000
    C50      C        0.52730    0.44910    0.87920    1.000
    C51      C        0.74030    0.50760    0.56650    1.000
    C52      C        0.05150    0.37880    0.84190    1.000
    C53      C        0.06520    0.48220    0.81950    1.000
    C54      C        0.97660    0.54040    0.76760    1.000
    H18      H        0.91250    0.51490    0.74470    1.000
    C55      C        0.98300    0.63720    0.74970    1.000
    C56      C        0.08480    0.67870    0.77840    1.000
    C57      C        0.17560    0.61960    0.82950    1.000
    C58      C        0.16210    0.52250    0.85180    1.000
    H19      H        0.21870    0.48410    0.88890    1.000
    C59      C        0.86690    0.69340    0.70510    1.000
    C60      C        0.29810    0.65850    0.85550    1.000
    C61      C        0.09190    0.78180    0.75860    1.000
    C62      C        0.07550    0.81800    0.82570    1.000
    H20      H        0.06230    0.77660    0.88340    1.000
    C63      C        0.07850    0.91290    0.80790    1.000
    C64      C        0.09840    0.97640    0.72140    1.000
    H21      H        0.09930    0.04070    0.70890    1.000
    C65      C        0.11640    0.94180    0.65530    1.000
    C66      C        0.11370    0.84620    0.67260    1.000
    H22      H        0.12660    0.82460    0.62660    1.000
    C67      C        0.05430    0.95150    0.88110    1.000
    C68      C        0.14100    0.01020    0.56170    1.000
