# CIF file generated by openbabel 3.1.0, see https://openbabel.org
data_I
_chemical_name_common 'image0'
_cell_length_a 9.8879
_cell_length_b 15.9826
_cell_length_c 11.2887
_cell_angle_alpha 90
_cell_angle_beta 111.178
_cell_angle_gamma 90
_space_group_name_H-M_alt 'P 1'
_space_group_name_Hall 'P 1'
loop_
    _symmetry_equiv_pos_as_xyz
    x,y,z
loop_
    _atom_site_label
    _atom_site_type_symbol
    _atom_site_fract_x
    _atom_site_fract_y
    _atom_site_fract_z
    _atom_site_occupancy
    C1       C        0.30230    0.44990    0.43620    1.000
    N1       N        0.18800    0.42200    0.40010    1.000
    K1       K        0.97086    0.45298    0.15784    1.000
    Au1      Au       0.14908    0.77734    0.36136    1.000
    C2       C        0.24300    0.88910    0.41100    1.000
    N2       N        0.29900    0.95230    0.44380    1.000
    C3       C        0.05120    0.66600    0.31920    1.000
    N3       N        0.99270    0.60340    0.29590    1.000
    Au2      Au       0.91427    0.81727    0.08847    1.000
    C4       C        0.02860    0.74970    0.00730    1.000
    N4       N        0.08750    0.70900    0.95880    1.000
    C5       C        0.79400    0.87980    0.16650    1.000
    N5       N        0.72170    0.91520    0.21110    1.000
    C6       C        0.19770    0.94990    0.06380    1.000
    N6       N        0.31200    0.92200    0.09990    1.000
    K2       K        0.52914    0.95298    0.34216    1.000
    Au3      Au       0.35092    0.27734    0.13864    1.000
    C7       C        0.25700    0.38910    0.08900    1.000
    N7       N        0.20100    0.45230    0.05620    1.000
    C8       C        0.44880    0.16600    0.18080    1.000
    N8       N        0.50730    0.10340    0.20410    1.000
    Au4      Au       0.58573    0.31727    0.41153    1.000
    C9       C        0.47140    0.24970    0.49270    1.000
    N9       N        0.41250    0.20900    0.54120    1.000
    C10      C        0.70600    0.37980    0.33350    1.000
    N10      N        0.77830    0.41520    0.28890    1.000
    C11      C        0.69770    0.55010    0.56380    1.000
    N11      N        0.81200    0.57800    0.59990    1.000
    K3       K        0.02914    0.54702    0.84216    1.000
    Au5      Au       0.85092    0.22266    0.63864    1.000
    C12      C        0.75700    0.11090    0.58900    1.000
    N12      N        0.70100    0.04770    0.55620    1.000
    C13      C        0.94880    0.33400    0.68080    1.000
    N13      N        0.00730    0.39660    0.70410    1.000
    Au6      Au       0.08573    0.18273    0.91153    1.000
    C14      C        0.97140    0.25030    0.99270    1.000
    N14      N        0.91250    0.29100    0.04120    1.000
    C15      C        0.20600    0.12020    0.83350    1.000
    N15      N        0.27830    0.08480    0.78890    1.000
    C16      C        0.80230    0.05010    0.93620    1.000
    N16      N        0.68800    0.07800    0.90010    1.000
    K4       K        0.47086    0.04702    0.65784    1.000
    Au7      Au       0.64908    0.72266    0.86136    1.000
    C17      C        0.74300    0.61090    0.91100    1.000
    N17      N        0.79900    0.54770    0.94380    1.000
    C18      C        0.55120    0.83400    0.81920    1.000
    N18      N        0.49270    0.89660    0.79590    1.000
    Au8      Au       0.41427    0.68273    0.58847    1.000
    C19      C        0.52860    0.75030    0.50730    1.000
    N19      N        0.58750    0.79100    0.45880    1.000
    C20      C        0.29400    0.62020    0.66650    1.000
    N20      N        0.22170    0.58480    0.71110    1.000
    Au9      Au       0.50000    0.50000    0.50000    1.000
    Au10     Au       0.00000    0.00000    0.00000    1.000
    K5       K        0.00000    0.50000    0.50000    1.000
    K6       K        0.50000    0.00000    0.00000    1.000
