# CIF file generated by openbabel 3.1.0, see https://openbabel.org
data_I
_chemical_name_common 'FEWQIJ_clean_b'
_cell_length_a 27.3934
_cell_length_b 27.3934
_cell_length_c 14.0108
_cell_angle_alpha 90
_cell_angle_beta 90
_cell_angle_gamma 120
_space_group_name_H-M_alt 'P 1'
_space_group_name_Hall 'P 1'
loop_
    _symmetry_equiv_pos_as_xyz
    x,y,z
loop_
    _atom_site_label
    _atom_site_type_symbol
    _atom_site_fract_x
    _atom_site_fract_y
    _atom_site_fract_z
    _atom_site_occupancy
    Dy1      Dy       0.73911    0.41371    0.02451    1.000
    C2       C        0.77160    0.55520    0.13520    1.000
    N3       N        0.78460    0.60550    0.17175    1.000
    C4       C        0.76750    0.60970    0.25800    1.000
    H5       H        0.77810    0.64490    0.28385    1.000
    C6       C        0.79460    0.55720    0.03795    1.000
    N7       N        0.71850    0.51020    0.27570    1.000
    O8       O        0.72360    0.45520    0.16295    1.000
    C9       C        0.73340    0.56110    0.30850    1.000
    H10      H        0.72050    0.56420    0.36855    1.000
    C11      C        0.73860    0.50590    0.18795    1.000
    O12      O        0.78250    0.51290    0.49455    1.000
    O13      O        0.82380    0.60550    0.00100    1.000
    O14      O        0.65900    0.41740    0.47340    1.000
    H15      H        0.53952    0.32289    0.33657    1.000
    Dy16     Dy       0.40578    0.74704    0.19118    1.000
    C17      C        0.43827    0.88853    0.30187    1.000
    N18      N        0.45127    0.93883    0.33842    1.000
    C19      C        0.43417    0.94303    0.42467    1.000
    H20      H        0.44477    0.97823    0.45052    1.000
    C21      C        0.46127    0.89053    0.20462    1.000
    N22      N        0.38517    0.84353    0.44237    1.000
    O23      O        0.39027    0.78853    0.32962    1.000
    C24      C        0.40007    0.89443    0.47517    1.000
    H25      H        0.38717    0.89753    0.03522    1.000
    C26      C        0.40527    0.83923    0.35462    1.000
    O27      O        0.44917    0.84623    0.16122    1.000
    O28      O        0.49047    0.93883    0.16767    1.000
    O29      O        0.32567    0.75073    0.14007    1.000
    H30      H        0.20619    0.65623    0.00324    1.000
    Dy31     Dy       0.07244    0.08038    0.35784    1.000
    C32      C        0.10493    0.22187    0.46853    1.000
    N33      N        0.11793    0.27217    0.00508    1.000
    C34      C        0.10083    0.27637    0.09133    1.000
    H35      H        0.11143    0.31157    0.11718    1.000
    C36      C        0.12793    0.22387    0.37128    1.000
    N37      N        0.05183    0.17687    0.10903    1.000
    O38      O        0.05693    0.12187    0.49628    1.000
    C39      C        0.06673    0.22777    0.14183    1.000
    H40      H        0.05383    0.23087    0.20188    1.000
    C41      C        0.07193    0.17257    0.02128    1.000
    O42      O        0.11583    0.17957    0.32788    1.000
    O43      O        0.15713    0.27217    0.33433    1.000
    O44      O        0.99233    0.08407    0.30673    1.000
    H45      H        0.87286    0.98956    0.16990    1.000
    Dy46     Dy       0.58629    0.32540    0.02451    1.000
    C47      C        0.44480    0.21640    0.13520    1.000
    N48      N        0.39450    0.17910    0.17175    1.000
    C49      C        0.39030    0.15780    0.25800    1.000
    H50      H        0.35510    0.13320    0.28385    1.000
    C51      C        0.44280    0.23740    0.03795    1.000
    N52      N        0.48980    0.20830    0.27570    1.000
    O53      O        0.54480    0.26840    0.16295    1.000
    C54      C        0.43890    0.17230    0.30850    1.000
    H55      H        0.43580    0.15630    0.36855    1.000
    C56      C        0.49410    0.23270    0.18795    1.000
    O57      O        0.48710    0.26960    0.49455    1.000
    O58      O        0.39450    0.21830    0.00100    1.000
    O59      O        0.58260    0.24160    0.47340    1.000
    H60      H        0.67711    0.21663    0.33657    1.000
    Dy61     Dy       0.25296    0.65873    0.19118    1.000
    C62      C        0.11147    0.54973    0.30187    1.000
    N63      N        0.06117    0.51243    0.33842    1.000
    C64      C        0.05697    0.49113    0.42467    1.000
    H65      H        0.02177    0.46653    0.45052    1.000
    C66      C        0.10947    0.57073    0.20462    1.000
    N67      N        0.15647    0.54163    0.44237    1.000
    O68      O        0.21147    0.60173    0.32962    1.000
    C69      C        0.10557    0.50563    0.47517    1.000
    H70      H        0.10247    0.48963    0.03522    1.000
    C71      C        0.16077    0.56603    0.35462    1.000
    O72      O        0.15377    0.60293    0.16122    1.000
    O73      O        0.06117    0.55163    0.16767    1.000
    O74      O        0.24927    0.57493    0.14007    1.000
    H75      H        0.34377    0.54996    0.00324    1.000
    Dy76     Dy       0.91962    0.99207    0.35784    1.000
    C77      C        0.77813    0.88307    0.46853    1.000
    N78      N        0.72783    0.84577    0.00508    1.000
    C79      C        0.72363    0.82447    0.09133    1.000
    H80      H        0.68843    0.79987    0.11718    1.000
    C81      C        0.77613    0.90407    0.37128    1.000
    N82      N        0.82313    0.87497    0.10903    1.000
    O83      O        0.87813    0.93507    0.49628    1.000
    C84      C        0.77223    0.83897    0.14183    1.000
    H85      H        0.76913    0.82297    0.20188    1.000
    C86      C        0.82743    0.89937    0.02128    1.000
    O87      O        0.82043    0.93627    0.32788    1.000
    O88      O        0.72783    0.88497    0.33433    1.000
    O89      O        0.91593    0.90827    0.30673    1.000
    H90      H        0.01044    0.88330    0.16990    1.000
    Dy91     Dy       0.67460    0.26089    0.02451    1.000
    C92      C        0.78360    0.22840    0.13520    1.000
    N93      N        0.82090    0.21540    0.17175    1.000
    C94      C        0.84220    0.23250    0.25800    1.000
    H95      H        0.86680    0.22190    0.28385    1.000
    C96      C        0.76260    0.20540    0.03795    1.000
    N97      N        0.79170    0.28150    0.27570    1.000
    O98      O        0.73160    0.27640    0.16295    1.000
    C99      C        0.82770    0.26660    0.30850    1.000
    H100     H        0.84370    0.27950    0.36855    1.000
    C101     C        0.76730    0.26140    0.18795    1.000
    O102     O        0.73040    0.21750    0.49455    1.000
    O103     O        0.78170    0.17620    0.00100    1.000
    O104     O        0.75840    0.34100    0.47340    1.000
    H105     H        0.78337    0.46048    0.33657    1.000
    Dy106    Dy       0.34127    0.59422    0.19118    1.000
    C107     C        0.45027    0.56173    0.30187    1.000
    N108     N        0.48757    0.54873    0.33842    1.000
    C109     C        0.50887    0.56583    0.42467    1.000
    H110     H        0.53347    0.55523    0.45052    1.000
    C111     C        0.42927    0.53873    0.20462    1.000
    N112     N        0.45837    0.61483    0.44237    1.000
    O113     O        0.39827    0.60973    0.32962    1.000
    C114     C        0.49437    0.59993    0.47517    1.000
    H115     H        0.51037    0.61283    0.03522    1.000
    C116     C        0.43397    0.59473    0.35462    1.000
    O117     O        0.39707    0.55083    0.16122    1.000
    O118     O        0.44837    0.50953    0.16767    1.000
    O119     O        0.42507    0.67433    0.14007    1.000
    H120     H        0.45004    0.79381    0.00324    1.000
    Dy121    Dy       0.00793    0.92756    0.35784    1.000
    C122     C        0.11693    0.89507    0.46853    1.000
    N123     N        0.15423    0.88207    0.00508    1.000
    C124     C        0.17553    0.89917    0.09133    1.000
    H125     H        0.20013    0.88857    0.11718    1.000
    C126     C        0.09593    0.87207    0.37128    1.000
    N127     N        0.12503    0.94817    0.10903    1.000
    O128     O        0.06493    0.94307    0.49628    1.000
    C129     C        0.16103    0.93327    0.14183    1.000
    H130     H        0.17703    0.94617    0.20188    1.000
    C131     C        0.10063    0.92807    0.02128    1.000
    O132     O        0.06373    0.88417    0.32788    1.000
    O133     O        0.11503    0.84287    0.33433    1.000
    O134     O        0.09173    0.00767    0.30673    1.000
    H135     H        0.11670    0.12714    0.16990    1.000
    Dy136    Dy       0.26089    0.58629    0.47549    1.000
    C137     C        0.22840    0.44480    0.36480    1.000
    N138     N        0.21540    0.39450    0.32825    1.000
    C139     C        0.23250    0.39030    0.24200    1.000
    H140     H        0.22190    0.35510    0.21615    1.000
    C141     C        0.20540    0.44280    0.46205    1.000
    N142     N        0.28150    0.48980    0.22430    1.000
    O143     O        0.27640    0.54480    0.33705    1.000
    C144     C        0.26660    0.43890    0.19150    1.000
    H145     H        0.27950    0.43580    0.13145    1.000
    C146     C        0.26140    0.49410    0.31205    1.000
    O147     O        0.21750    0.48710    0.00545    1.000
    O148     O        0.17620    0.39450    0.49900    1.000
    O149     O        0.34100    0.58260    0.02660    1.000
    H150     H        0.46048    0.67711    0.16343    1.000
    Dy151    Dy       0.92756    0.91962    0.14216    1.000
    C152     C        0.89507    0.77813    0.03147    1.000
    N153     N        0.88207    0.72783    0.49492    1.000
    C154     C        0.89917    0.72363    0.40867    1.000
    H155     H        0.88857    0.68843    0.38282    1.000
    C156     C        0.87207    0.77613    0.12872    1.000
    N157     N        0.94817    0.82313    0.39097    1.000
    O158     O        0.94307    0.87813    0.00372    1.000
    C159     C        0.93327    0.77223    0.35817    1.000
    H160     H        0.94617    0.76913    0.29812    1.000
    C161     C        0.92807    0.82743    0.47872    1.000
    O162     O        0.88417    0.82043    0.17212    1.000
    O163     O        0.84287    0.72783    0.16567    1.000
    O164     O        0.00767    0.91593    0.19327    1.000
    H165     H        0.12714    0.01044    0.33010    1.000
    Dy166    Dy       0.59422    0.25296    0.30882    1.000
    C167     C        0.56173    0.11147    0.19813    1.000
    N168     N        0.54873    0.06117    0.16158    1.000
    C169     C        0.56583    0.05697    0.07533    1.000
    H170     H        0.55523    0.02177    0.04948    1.000
    C171     C        0.53873    0.10947    0.29538    1.000
    N172     N        0.61483    0.15647    0.05763    1.000
    O173     O        0.60973    0.21147    0.17038    1.000
    C174     C        0.59993    0.10557    0.02483    1.000
    H175     H        0.61283    0.10247    0.46478    1.000
    C176     C        0.59473    0.16077    0.14538    1.000
    O177     O        0.55083    0.15377    0.33878    1.000
    O178     O        0.50953    0.06117    0.33233    1.000
    O179     O        0.67433    0.24927    0.35993    1.000
    H180     H        0.79381    0.34377    0.49676    1.000
    Dy181    Dy       0.41371    0.67460    0.47549    1.000
    C182     C        0.55520    0.78360    0.36480    1.000
    N183     N        0.60550    0.82090    0.32825    1.000
    C184     C        0.60970    0.84220    0.24200    1.000
    H185     H        0.64490    0.86680    0.21615    1.000
    C186     C        0.55720    0.76260    0.46205    1.000
    N187     N        0.51020    0.79170    0.22430    1.000
    O188     O        0.45520    0.73160    0.33705    1.000
    C189     C        0.56110    0.82770    0.19150    1.000
    H190     H        0.56420    0.84370    0.13145    1.000
    C191     C        0.50590    0.76730    0.31205    1.000
    O192     O        0.51290    0.73040    0.00545    1.000
    O193     O        0.60550    0.78170    0.49900    1.000
    O194     O        0.41740    0.75840    0.02660    1.000
    H195     H        0.32289    0.78337    0.16343    1.000
    Dy196    Dy       0.08038    0.00793    0.14216    1.000
    C197     C        0.22187    0.11693    0.03147    1.000
    N198     N        0.27217    0.15423    0.49492    1.000
    C199     C        0.27637    0.17553    0.40867    1.000
    H200     H        0.31157    0.20013    0.38282    1.000
    C201     C        0.22387    0.09593    0.12872    1.000
    N202     N        0.17687    0.12503    0.39097    1.000
    O203     O        0.12187    0.06493    0.00372    1.000
    C204     C        0.22777    0.16103    0.35817    1.000
    H205     H        0.23087    0.17703    0.29812    1.000
    C206     C        0.17257    0.10063    0.47872    1.000
    O207     O        0.17957    0.06373    0.17212    1.000
    O208     O        0.27217    0.11503    0.16567    1.000
    O209     O        0.08407    0.09173    0.19327    1.000
    H210     H        0.98956    0.11670    0.33010    1.000
    Dy211    Dy       0.74704    0.34127    0.30882    1.000
    C212     C        0.88853    0.45027    0.19813    1.000
    N213     N        0.93883    0.48757    0.16158    1.000
    C214     C        0.94303    0.50887    0.07533    1.000
    H215     H        0.97823    0.53347    0.04948    1.000
    C216     C        0.89053    0.42927    0.29538    1.000
    N217     N        0.84353    0.45837    0.05763    1.000
    O218     O        0.78853    0.39827    0.17038    1.000
    C219     C        0.89443    0.49437    0.02483    1.000
    H220     H        0.89753    0.51037    0.46478    1.000
    C221     C        0.83923    0.43397    0.14538    1.000
    O222     O        0.84623    0.39707    0.33878    1.000
    O223     O        0.93883    0.44837    0.33233    1.000
    O224     O        0.75073    0.42507    0.35993    1.000
    H225     H        0.65623    0.45004    0.49676    1.000
    Dy226    Dy       0.32540    0.73911    0.47549    1.000
    C227     C        0.21640    0.77160    0.36480    1.000
    N228     N        0.17910    0.78460    0.32825    1.000
    C229     C        0.15780    0.76750    0.24200    1.000
    H230     H        0.13320    0.77810    0.21615    1.000
    C231     C        0.23740    0.79460    0.46205    1.000
    N232     N        0.20830    0.71850    0.22430    1.000
    O233     O        0.26840    0.72360    0.33705    1.000
    C234     C        0.17230    0.73340    0.19150    1.000
    H235     H        0.15630    0.72050    0.13145    1.000
    C236     C        0.23270    0.73860    0.31205    1.000
    O237     O        0.26960    0.78250    0.00545    1.000
    O238     O        0.21830    0.82380    0.49900    1.000
    O239     O        0.24160    0.65900    0.02660    1.000
    H240     H        0.21663    0.53952    0.16343    1.000
    Dy241    Dy       0.99207    0.07244    0.14216    1.000
    C242     C        0.88307    0.10493    0.03147    1.000
    N243     N        0.84577    0.11793    0.49492    1.000
    C244     C        0.82447    0.10083    0.40867    1.000
    H245     H        0.79987    0.11143    0.38282    1.000
    C246     C        0.90407    0.12793    0.12872    1.000
    N247     N        0.87497    0.05183    0.39097    1.000
    O248     O        0.93507    0.05693    0.00372    1.000
    C249     C        0.83897    0.06673    0.35817    1.000
    H250     H        0.82297    0.05383    0.29812    1.000
    C251     C        0.89937    0.07193    0.47872    1.000
    O252     O        0.93627    0.11583    0.17212    1.000
    O253     O        0.88497    0.15713    0.16567    1.000
    O254     O        0.90827    0.99233    0.19327    1.000
    H255     H        0.88330    0.87286    0.33010    1.000
    Dy256    Dy       0.65873    0.40578    0.30882    1.000
    C257     C        0.54973    0.43827    0.19813    1.000
    N258     N        0.51243    0.45127    0.16158    1.000
    C259     C        0.49113    0.43417    0.07533    1.000
    H260     H        0.46653    0.44477    0.04948    1.000
    C261     C        0.57073    0.46127    0.29538    1.000
    N262     N        0.54163    0.38517    0.05763    1.000
    O263     O        0.60173    0.39027    0.17038    1.000
    C264     C        0.50563    0.40007    0.02483    1.000
    H265     H        0.48963    0.38717    0.46478    1.000
    C266     C        0.56603    0.40527    0.14538    1.000
    O267     O        0.60293    0.44917    0.33878    1.000
    O268     O        0.55163    0.49047    0.33233    1.000
    O269     O        0.57493    0.32567    0.35993    1.000
    H270     H        0.54996    0.20619    0.49676    1.000
    Cu271    Cu       0.83333    0.66667    0.08333    1.000
    Cu272    Cu       0.50000    0.00000    0.25000    1.000
    Cu273    Cu       0.33333    0.16667    0.08333    1.000
    Cu274    Cu       0.00000    0.50000    0.25000    1.000
    Cu275    Cu       0.83333    0.16667    0.08333    1.000
    Cu276    Cu       0.50000    0.50000    0.25000    1.000
    Cu277    Cu       0.16667    0.33333    0.41667    1.000
    Cu278    Cu       0.66667    0.83333    0.41667    1.000
    Cu279    Cu       0.16667    0.83333    0.41667    1.000
    O280     O        0.66667    0.33333    0.41667    1.000
    O281     O        0.00000    0.00000    0.25000    1.000
    O282     O        0.33333    0.66667    0.08333    1.000
    O283     O        0.66667    0.33333    0.07700    1.000
    O284     O        0.33333    0.66667    0.24367    1.000
    O285     O        0.00000    0.00000    0.41033    1.000
    O286     O        0.33333    0.66667    0.42300    1.000
    O287     O        0.00000    0.00000    0.08967    1.000
    O288     O        0.66667    0.33333    0.25633    1.000
    Dy289    Dy       0.73911    0.41371    0.52451    1.000
    C290     C        0.77160    0.55520    0.63520    1.000
    N291     N        0.78460    0.60550    0.67175    1.000
    C292     C        0.76750    0.60970    0.75800    1.000
    H293     H        0.77810    0.64490    0.78385    1.000
    C294     C        0.79460    0.55720    0.53795    1.000
    N295     N        0.71850    0.51020    0.77570    1.000
    O296     O        0.72360    0.45520    0.66295    1.000
    C297     C        0.73340    0.56110    0.80850    1.000
    H298     H        0.72050    0.56420    0.86855    1.000
    C299     C        0.73860    0.50590    0.68795    1.000
    O300     O        0.78250    0.51290    0.99455    1.000
    O301     O        0.82380    0.60550    0.50100    1.000
    O302     O        0.65900    0.41740    0.97340    1.000
    H303     H        0.53952    0.32289    0.83657    1.000
    Dy304    Dy       0.40578    0.74704    0.69118    1.000
    C305     C        0.43827    0.88853    0.80187    1.000
    N306     N        0.45127    0.93883    0.83842    1.000
    C307     C        0.43417    0.94303    0.92467    1.000
    H308     H        0.44477    0.97823    0.95052    1.000
    C309     C        0.46127    0.89053    0.70462    1.000
    N310     N        0.38517    0.84353    0.94237    1.000
    O311     O        0.39027    0.78853    0.82962    1.000
    C312     C        0.40007    0.89443    0.97517    1.000
    H313     H        0.38717    0.89753    0.53522    1.000
    C314     C        0.40527    0.83923    0.85462    1.000
    O315     O        0.44917    0.84623    0.66122    1.000
    O316     O        0.49047    0.93883    0.66767    1.000
    O317     O        0.32567    0.75073    0.64007    1.000
    H318     H        0.20619    0.65623    0.50324    1.000
    Dy319    Dy       0.07244    0.08038    0.85784    1.000
    C320     C        0.10493    0.22187    0.96853    1.000
    N321     N        0.11793    0.27217    0.50508    1.000
    C322     C        0.10083    0.27637    0.59133    1.000
    H323     H        0.11143    0.31157    0.61718    1.000
    C324     C        0.12793    0.22387    0.87128    1.000
    N325     N        0.05183    0.17687    0.60903    1.000
    O326     O        0.05693    0.12187    0.99628    1.000
    C327     C        0.06673    0.22777    0.64183    1.000
    H328     H        0.05383    0.23087    0.70188    1.000
    C329     C        0.07193    0.17257    0.52128    1.000
    O330     O        0.11583    0.17957    0.82788    1.000
    O331     O        0.15713    0.27217    0.83433    1.000
    O332     O        0.99233    0.08407    0.80673    1.000
    H333     H        0.87286    0.98956    0.66990    1.000
    Dy334    Dy       0.58629    0.32540    0.52451    1.000
    C335     C        0.44480    0.21640    0.63520    1.000
    N336     N        0.39450    0.17910    0.67175    1.000
    C337     C        0.39030    0.15780    0.75800    1.000
    H338     H        0.35510    0.13320    0.78385    1.000
    C339     C        0.44280    0.23740    0.53795    1.000
    N340     N        0.48980    0.20830    0.77570    1.000
    O341     O        0.54480    0.26840    0.66295    1.000
    C342     C        0.43890    0.17230    0.80850    1.000
    H343     H        0.43580    0.15630    0.86855    1.000
    C344     C        0.49410    0.23270    0.68795    1.000
    O345     O        0.48710    0.26960    0.99455    1.000
    O346     O        0.39450    0.21830    0.50100    1.000
    O347     O        0.58260    0.24160    0.97340    1.000
    H348     H        0.67711    0.21663    0.83657    1.000
    Dy349    Dy       0.25296    0.65873    0.69118    1.000
    C350     C        0.11147    0.54973    0.80187    1.000
    N351     N        0.06117    0.51243    0.83842    1.000
    C352     C        0.05697    0.49113    0.92467    1.000
    H353     H        0.02177    0.46653    0.95052    1.000
    C354     C        0.10947    0.57073    0.70462    1.000
    N355     N        0.15647    0.54163    0.94237    1.000
    O356     O        0.21147    0.60173    0.82962    1.000
    C357     C        0.10557    0.50563    0.97517    1.000
    H358     H        0.10247    0.48963    0.53522    1.000
    C359     C        0.16077    0.56603    0.85462    1.000
    O360     O        0.15377    0.60293    0.66122    1.000
    O361     O        0.06117    0.55163    0.66767    1.000
    O362     O        0.24927    0.57493    0.64007    1.000
    H363     H        0.34377    0.54996    0.50324    1.000
    Dy364    Dy       0.91962    0.99207    0.85784    1.000
    C365     C        0.77813    0.88307    0.96853    1.000
    N366     N        0.72783    0.84577    0.50508    1.000
    C367     C        0.72363    0.82447    0.59133    1.000
    H368     H        0.68843    0.79987    0.61718    1.000
    C369     C        0.77613    0.90407    0.87128    1.000
    N370     N        0.82313    0.87497    0.60903    1.000
    O371     O        0.87813    0.93507    0.99628    1.000
    C372     C        0.77223    0.83897    0.64183    1.000
    H373     H        0.76913    0.82297    0.70188    1.000
    C374     C        0.82743    0.89937    0.52128    1.000
    O375     O        0.82043    0.93627    0.82788    1.000
    O376     O        0.72783    0.88497    0.83433    1.000
    O377     O        0.91593    0.90827    0.80673    1.000
    H378     H        0.01044    0.88330    0.66990    1.000
    Dy379    Dy       0.67460    0.26089    0.52451    1.000
    C380     C        0.78360    0.22840    0.63520    1.000
    N381     N        0.82090    0.21540    0.67175    1.000
    C382     C        0.84220    0.23250    0.75800    1.000
    H383     H        0.86680    0.22190    0.78385    1.000
    C384     C        0.76260    0.20540    0.53795    1.000
    N385     N        0.79170    0.28150    0.77570    1.000
    O386     O        0.73160    0.27640    0.66295    1.000
    C387     C        0.82770    0.26660    0.80850    1.000
    H388     H        0.84370    0.27950    0.86855    1.000
    C389     C        0.76730    0.26140    0.68795    1.000
    O390     O        0.73040    0.21750    0.99455    1.000
    O391     O        0.78170    0.17620    0.50100    1.000
    O392     O        0.75840    0.34100    0.97340    1.000
    H393     H        0.78337    0.46048    0.83657    1.000
    Dy394    Dy       0.34127    0.59422    0.69118    1.000
    C395     C        0.45027    0.56173    0.80187    1.000
    N396     N        0.48757    0.54873    0.83842    1.000
    C397     C        0.50887    0.56583    0.92467    1.000
    H398     H        0.53347    0.55523    0.95052    1.000
    C399     C        0.42927    0.53873    0.70462    1.000
    N400     N        0.45837    0.61483    0.94237    1.000
    O401     O        0.39827    0.60973    0.82962    1.000
    C402     C        0.49437    0.59993    0.97517    1.000
    H403     H        0.51037    0.61283    0.53522    1.000
    C404     C        0.43397    0.59473    0.85462    1.000
    O405     O        0.39707    0.55083    0.66122    1.000
    O406     O        0.44837    0.50953    0.66767    1.000
    O407     O        0.42507    0.67433    0.64007    1.000
    H408     H        0.45004    0.79381    0.50324    1.000
    Dy409    Dy       0.00793    0.92756    0.85784    1.000
    C410     C        0.11693    0.89507    0.96853    1.000
    N411     N        0.15423    0.88207    0.50508    1.000
    C412     C        0.17553    0.89917    0.59133    1.000
    H413     H        0.20013    0.88857    0.61718    1.000
    C414     C        0.09593    0.87207    0.87128    1.000
    N415     N        0.12503    0.94817    0.60903    1.000
    O416     O        0.06493    0.94307    0.99628    1.000
    C417     C        0.16103    0.93327    0.64183    1.000
    H418     H        0.17703    0.94617    0.70188    1.000
    C419     C        0.10063    0.92807    0.52128    1.000
    O420     O        0.06373    0.88417    0.82788    1.000
    O421     O        0.11503    0.84287    0.83433    1.000
    O422     O        0.09173    0.00767    0.80673    1.000
    H423     H        0.11670    0.12714    0.66990    1.000
    Dy424    Dy       0.26089    0.58629    0.97549    1.000
    C425     C        0.22840    0.44480    0.86480    1.000
    N426     N        0.21540    0.39450    0.82825    1.000
    C427     C        0.23250    0.39030    0.74200    1.000
    H428     H        0.22190    0.35510    0.71615    1.000
    C429     C        0.20540    0.44280    0.96205    1.000
    N430     N        0.28150    0.48980    0.72430    1.000
    O431     O        0.27640    0.54480    0.83705    1.000
    C432     C        0.26660    0.43890    0.69150    1.000
    H433     H        0.27950    0.43580    0.63145    1.000
    C434     C        0.26140    0.49410    0.81205    1.000
    O435     O        0.21750    0.48710    0.50545    1.000
    O436     O        0.17620    0.39450    0.99900    1.000
    O437     O        0.34100    0.58260    0.52660    1.000
    H438     H        0.46048    0.67711    0.66343    1.000
    Dy439    Dy       0.92756    0.91962    0.64216    1.000
    C440     C        0.89507    0.77813    0.53147    1.000
    N441     N        0.88207    0.72783    0.99492    1.000
    C442     C        0.89917    0.72363    0.90867    1.000
    H443     H        0.88857    0.68843    0.88282    1.000
    C444     C        0.87207    0.77613    0.62872    1.000
    N445     N        0.94817    0.82313    0.89097    1.000
    O446     O        0.94307    0.87813    0.50372    1.000
    C447     C        0.93327    0.77223    0.85817    1.000
    H448     H        0.94617    0.76913    0.79812    1.000
    C449     C        0.92807    0.82743    0.97872    1.000
    O450     O        0.88417    0.82043    0.67212    1.000
    O451     O        0.84287    0.72783    0.66567    1.000
    O452     O        0.00767    0.91593    0.69327    1.000
    H453     H        0.12714    0.01044    0.83010    1.000
    Dy454    Dy       0.59422    0.25296    0.80882    1.000
    C455     C        0.56173    0.11147    0.69813    1.000
    N456     N        0.54873    0.06117    0.66158    1.000
    C457     C        0.56583    0.05697    0.57533    1.000
    H458     H        0.55523    0.02177    0.54948    1.000
    C459     C        0.53873    0.10947    0.79538    1.000
    N460     N        0.61483    0.15647    0.55763    1.000
    O461     O        0.60973    0.21147    0.67038    1.000
    C462     C        0.59993    0.10557    0.52483    1.000
    H463     H        0.61283    0.10247    0.96478    1.000
    C464     C        0.59473    0.16077    0.64538    1.000
    O465     O        0.55083    0.15377    0.83878    1.000
    O466     O        0.50953    0.06117    0.83233    1.000
    O467     O        0.67433    0.24927    0.85993    1.000
    H468     H        0.79381    0.34377    0.99676    1.000
    Dy469    Dy       0.41371    0.67460    0.97549    1.000
    C470     C        0.55520    0.78360    0.86480    1.000
    N471     N        0.60550    0.82090    0.82825    1.000
    C472     C        0.60970    0.84220    0.74200    1.000
    H473     H        0.64490    0.86680    0.71615    1.000
    C474     C        0.55720    0.76260    0.96205    1.000
    N475     N        0.51020    0.79170    0.72430    1.000
    O476     O        0.45520    0.73160    0.83705    1.000
    C477     C        0.56110    0.82770    0.69150    1.000
    H478     H        0.56420    0.84370    0.63145    1.000
    C479     C        0.50590    0.76730    0.81205    1.000
    O480     O        0.51290    0.73040    0.50545    1.000
    O481     O        0.60550    0.78170    0.99900    1.000
    O482     O        0.41740    0.75840    0.52660    1.000
    H483     H        0.32289    0.78337    0.66343    1.000
    Dy484    Dy       0.08038    0.00793    0.64216    1.000
    C485     C        0.22187    0.11693    0.53147    1.000
    N486     N        0.27217    0.15423    0.99492    1.000
    C487     C        0.27637    0.17553    0.90867    1.000
    H488     H        0.31157    0.20013    0.88282    1.000
    C489     C        0.22387    0.09593    0.62872    1.000
    N490     N        0.17687    0.12503    0.89097    1.000
    O491     O        0.12187    0.06493    0.50372    1.000
    C492     C        0.22777    0.16103    0.85817    1.000
    H493     H        0.23087    0.17703    0.79812    1.000
    C494     C        0.17257    0.10063    0.97872    1.000
    O495     O        0.17957    0.06373    0.67212    1.000
    O496     O        0.27217    0.11503    0.66567    1.000
    O497     O        0.08407    0.09173    0.69327    1.000
    H498     H        0.98956    0.11670    0.83010    1.000
    Dy499    Dy       0.74704    0.34127    0.80882    1.000
    C500     C        0.88853    0.45027    0.69813    1.000
    N501     N        0.93883    0.48757    0.66158    1.000
    C502     C        0.94303    0.50887    0.57533    1.000
    H503     H        0.97823    0.53347    0.54948    1.000
    C504     C        0.89053    0.42927    0.79538    1.000
    N505     N        0.84353    0.45837    0.55763    1.000
    O506     O        0.78853    0.39827    0.67038    1.000
    C507     C        0.89443    0.49437    0.52483    1.000
    H508     H        0.89753    0.51037    0.96478    1.000
    C509     C        0.83923    0.43397    0.64538    1.000
    O510     O        0.84623    0.39707    0.83878    1.000
    O511     O        0.93883    0.44837    0.83233    1.000
    O512     O        0.75073    0.42507    0.85993    1.000
    H513     H        0.65623    0.45004    0.99676    1.000
    Dy514    Dy       0.32540    0.73911    0.97549    1.000
    C515     C        0.21640    0.77160    0.86480    1.000
    N516     N        0.17910    0.78460    0.82825    1.000
    C517     C        0.15780    0.76750    0.74200    1.000
    H518     H        0.13320    0.77810    0.71615    1.000
    C519     C        0.23740    0.79460    0.96205    1.000
    N520     N        0.20830    0.71850    0.72430    1.000
    O521     O        0.26840    0.72360    0.83705    1.000
    C522     C        0.17230    0.73340    0.69150    1.000
    H523     H        0.15630    0.72050    0.63145    1.000
    C524     C        0.23270    0.73860    0.81205    1.000
    O525     O        0.26960    0.78250    0.50545    1.000
    O526     O        0.21830    0.82380    0.99900    1.000
    O527     O        0.24160    0.65900    0.52660    1.000
    H528     H        0.21663    0.53952    0.66343    1.000
    Dy529    Dy       0.99207    0.07244    0.64216    1.000
    C530     C        0.88307    0.10493    0.53147    1.000
    N531     N        0.84577    0.11793    0.99492    1.000
    C532     C        0.82447    0.10083    0.90867    1.000
    H533     H        0.79987    0.11143    0.88282    1.000
    C534     C        0.90407    0.12793    0.62872    1.000
    N535     N        0.87497    0.05183    0.89097    1.000
    O536     O        0.93507    0.05693    0.50372    1.000
    C537     C        0.83897    0.06673    0.85817    1.000
    H538     H        0.82297    0.05383    0.79812    1.000
    C539     C        0.89937    0.07193    0.97872    1.000
    O540     O        0.93627    0.11583    0.67212    1.000
    O541     O        0.88497    0.15713    0.66567    1.000
    O542     O        0.90827    0.99233    0.69327    1.000
    H543     H        0.88330    0.87286    0.83010    1.000
    Dy544    Dy       0.65873    0.40578    0.80882    1.000
    C545     C        0.54973    0.43827    0.69813    1.000
    N546     N        0.51243    0.45127    0.66158    1.000
    C547     C        0.49113    0.43417    0.57533    1.000
    H548     H        0.46653    0.44477    0.54948    1.000
    C549     C        0.57073    0.46127    0.79538    1.000
    N550     N        0.54163    0.38517    0.55763    1.000
    O551     O        0.60173    0.39027    0.67038    1.000
    C552     C        0.50563    0.40007    0.52483    1.000
    H553     H        0.48963    0.38717    0.96478    1.000
    C554     C        0.56603    0.40527    0.64538    1.000
    O555     O        0.60293    0.44917    0.83878    1.000
    O556     O        0.55163    0.49047    0.83233    1.000
    O557     O        0.57493    0.32567    0.85993    1.000
    H558     H        0.54996    0.20619    0.99676    1.000
    Cu559    Cu       0.83333    0.66667    0.58333    1.000
    Cu560    Cu       0.50000    0.00000    0.75000    1.000
    Cu561    Cu       0.33333    0.16667    0.58333    1.000
    Cu562    Cu       0.00000    0.50000    0.75000    1.000
    Cu563    Cu       0.83333    0.16667    0.58333    1.000
    Cu564    Cu       0.50000    0.50000    0.75000    1.000
    Cu565    Cu       0.16667    0.33333    0.91667    1.000
    Cu566    Cu       0.66667    0.83333    0.91667    1.000
    Cu567    Cu       0.16667    0.83333    0.91667    1.000
    O568     O        0.66667    0.33333    0.91667    1.000
    O569     O        0.00000    0.00000    0.75000    1.000
    O570     O        0.33333    0.66667    0.58333    1.000
    O571     O        0.66667    0.33333    0.57700    1.000
    O572     O        0.33333    0.66667    0.74367    1.000
    O573     O        0.00000    0.00000    0.91033    1.000
    O574     O        0.33333    0.66667    0.92300    1.000
    O575     O        0.00000    0.00000    0.58967    1.000
    O576     O        0.66667    0.33333    0.75633    1.000
