# CIF file generated by openbabel 3.1.0, see https://openbabel.org
data_I
_chemical_name_common 'IRISAD01_charged'
_cell_length_a 9.2545
_cell_length_b 9.4632
_cell_length_c 9.4632
_cell_angle_alpha 76.167
_cell_angle_beta 60.7271
_cell_angle_gamma 60.727
_space_group_name_H-M_alt 'P 1'
_space_group_name_Hall 'P 1'
loop_
    _symmetry_equiv_pos_as_xyz
    x,y,z
loop_
    _atom_site_label
    _atom_site_type_symbol
    _atom_site_fract_x
    _atom_site_fract_y
    _atom_site_fract_z
    _atom_site_occupancy
    Bi1      Bi       0.87500    0.25000    0.75000    1.000
    Bi2      Bi       0.12500    0.75000    0.25000    1.000
    C1       C        0.10020    0.97600    0.47600    1.000
    C2       C        0.55220    0.52400    0.02400    1.000
    C3       C        0.07620    0.02400    0.97600    1.000
    C4       C        0.07620    0.47600    0.52400    1.000
    C5       C        0.89980    0.02400    0.52400    1.000
    C6       C        0.44780    0.47600    0.97600    1.000
    C7       C        0.92380    0.52400    0.47600    1.000
    C8       C        0.92380    0.97600    0.02400    1.000
    O1       O        0.13050    0.04660    0.54660    1.000
    O2       O        0.21910    0.87020    0.37020    1.000
    O3       O        0.72370    0.45340    0.95340    1.000
    O4       O        0.45950    0.62980    0.12980    1.000
    O5       O        0.17710    0.95340    0.04660    1.000
    O6       O        0.08930    0.12980    0.87020    1.000
    O7       O        0.17710    0.54660    0.45340    1.000
    O8       O        0.08930    0.37020    0.62980    1.000
    O9       O        0.86950    0.95340    0.45340    1.000
    O10      O        0.78090    0.12980    0.62980    1.000
    O11      O        0.27630    0.54660    0.04660    1.000
    O12      O        0.54050    0.37020    0.87020    1.000
    O13      O        0.82290    0.45340    0.54660    1.000
    O14      O        0.91070    0.62980    0.37020    1.000
    O15      O        0.82290    0.04660    0.95340    1.000
    O16      O        0.91070    0.87020    0.12980    1.000
    H1       H        0.51340    0.80960    0.30960    1.000
    H2       H        0.63260    0.69040    0.19040    1.000
    H3       H        0.67700    0.69040    0.30960    1.000
    H4       H        0.67700    0.80960    0.19040    1.000
    N1       N        0.62500    0.75000    0.25000    1.000
    H5       H        0.32300    0.19040    0.80960    1.000
    H6       H        0.32300    0.30960    0.69040    1.000
    H7       H        0.48660    0.19040    0.69040    1.000
    H8       H        0.36740    0.30960    0.80960    1.000
    N2       N        0.37500    0.25000    0.75000    1.000
