# CIF file generated by openbabel 3.1.0, see https://openbabel.org
data_I
_chemical_name_common 'HIYMAF_clean'
_cell_length_a 14.3529
_cell_length_b 15.2339
_cell_length_c 33.4083
_cell_angle_alpha 90
_cell_angle_beta 90
_cell_angle_gamma 90
_space_group_name_H-M_alt 'P 1'
_space_group_name_Hall 'P 1'
loop_
    _symmetry_equiv_pos_as_xyz
    x,y,z
loop_
    _atom_site_label
    _atom_site_type_symbol
    _atom_site_fract_x
    _atom_site_fract_y
    _atom_site_fract_z
    _atom_site_occupancy
    K1       K        0.68635    0.28323    0.45397    1.000
    K2       K        0.69134    0.26625    0.64316    1.000
    K3       K        0.68571    0.25700    0.25000    1.000
    K4       K        0.81429    0.75700    0.25000    1.000
    K5       K        0.80866    0.76625    0.64316    1.000
    K6       K        0.30866    0.73375    0.35684    1.000
    K7       K        0.18635    0.21677    0.95397    1.000
    K8       K        0.68635    0.28323    0.04603    1.000
    K9       K        0.31365    0.71677    0.95397    1.000
    K10      K        0.19134    0.23375    0.35684    1.000
    K11      K        0.18571    0.24300    0.75000    1.000
    K12      K        0.81365    0.78323    0.04603    1.000
    K13      K        0.69134    0.26625    0.85684    1.000
    K14      K        0.80866    0.76625    0.85684    1.000
    K15      K        0.31365    0.71677    0.54603    1.000
    K16      K        0.81365    0.78323    0.45397    1.000
    K17      K        0.19134    0.23375    0.14316    1.000
    K18      K        0.31429    0.74300    0.75000    1.000
    K19      K        0.30866    0.73375    0.14316    1.000
    K20      K        0.18635    0.21677    0.54603    1.000
    Dy1      Dy       0.88752    0.29789    0.94899    1.000
    Dy2      Dy       0.88752    0.29789    0.55101    1.000
    Dy3      Dy       0.14015    0.67962    0.25000    1.000
    Dy4      Dy       0.87058    0.30388    0.34920    1.000
    Dy5      Dy       0.38752    0.20211    0.44899    1.000
    Dy6      Dy       0.35985    0.17962    0.25000    1.000
    Dy7      Dy       0.85985    0.32038    0.75000    1.000
    Dy8      Dy       0.64015    0.82038    0.75000    1.000
    Dy9      Dy       0.62942    0.80388    0.34920    1.000
    Dy10     Dy       0.87058    0.30388    0.15080    1.000
    Dy11     Dy       0.62942    0.80388    0.15080    1.000
    Dy12     Dy       0.61248    0.79789    0.55101    1.000
    Dy13     Dy       0.37058    0.19612    0.65080    1.000
    Dy14     Dy       0.37058    0.19612    0.84920    1.000
    Dy15     Dy       0.12942    0.69612    0.65080    1.000
    Dy16     Dy       0.61248    0.79789    0.94899    1.000
    Dy17     Dy       0.11248    0.70211    0.44899    1.000
    Dy18     Dy       0.11248    0.70211    0.05101    1.000
    Dy19     Dy       0.12942    0.69612    0.84920    1.000
    Dy20     Dy       0.38752    0.20211    0.05101    1.000
    C1       C        0.38210    0.12560    0.75000    1.000
    C2       C        0.56080    0.07490    0.25000    1.000
    C3       C        0.29370    0.79710    0.25000    1.000
    C4       C        0.16260    0.39650    0.05090    1.000
    C5       C        0.93920    0.57490    0.25000    1.000
    C6       C        0.72010    0.18240    0.35280    1.000
    C7       C        0.35320    0.88860    0.85249    1.000
    C8       C        0.23950    0.01940    0.85540    1.000
    C9       C        0.72010    0.18240    0.14720    1.000
    C10      C        0.17190    0.48770    0.44920    1.000
    C11      C        0.93210    0.56680    0.04770    1.000
    C12      C        0.17190    0.48770    0.05080    1.000
    C13      C        0.49760    0.91070    0.04990    1.000
    C14      C        0.14680    0.38860    0.64751    1.000
    C15      C        0.01120    0.50150    0.04910    1.000
    C16      C        0.49760    0.91070    0.45010    1.000
    C17      C        0.06790    0.43320    0.95230    1.000
    C18      C        0.49390    0.99790    0.25000    1.000
    C19      C        0.51120    0.99850    0.54910    1.000
    C20      C        0.50990    0.91730    0.85102    1.000
    C21      C        0.10680    0.62220    0.35020    1.000
    C22      C        0.77990    0.68240    0.35280    1.000
    C23      C        0.36320    0.87210    0.25000    1.000
    C24      C        0.58970    0.86160    0.45040    1.000
    C25      C        0.75740    0.66840    0.55000    1.000
    C26      C        0.50240    0.08930    0.54990    1.000
    C27      C        0.66130    0.03940    0.75000    1.000
    C28      C        0.51120    0.99850    0.95090    1.000
    C29      C        0.73950    0.48060    0.35540    1.000
    C30      C        0.76260    0.96270    0.95010    1.000
    C31      C        0.89320    0.37780    0.85020    1.000
    C32      C        0.83870    0.53940    0.75000    1.000
    C33      C        0.49230    0.00770    0.64984    1.000
    C34      C        0.99760    0.58930    0.54990    1.000
    C35      C        0.60680    0.87780    0.85020    1.000
    C36      C        0.00770    0.50770    0.64984    1.000
    C37      C        0.06380    0.41920    0.14940    1.000
    C38      C        0.39320    0.12220    0.35020    1.000
    C39      C        0.74260    0.16840    0.55000    1.000
    C40      C        0.43210    0.93320    0.54770    1.000
    C41      C        0.82810    0.51230    0.94920    1.000
    C42      C        0.77990    0.68240    0.14720    1.000
    C43      C        0.00990    0.58270    0.35102    1.000
    C44      C        0.06790    0.43320    0.54770    1.000
    C45      C        0.85320    0.61140    0.35249    1.000
    C46      C        0.56790    0.06680    0.04770    1.000
    C47      C        0.00610    0.49790    0.25000    1.000
    C48      C        0.25740    0.83160    0.05000    1.000
    C49      C        0.23740    0.03730    0.04990    1.000
    C50      C        0.49010    0.08270    0.14898    1.000
    C51      C        0.99760    0.58930    0.95010    1.000
    C52      C        0.27990    0.81760    0.64720    1.000
    C53      C        0.82810    0.51230    0.55080    1.000
    C54      C        0.00240    0.41070    0.45010    1.000
    C55      C        0.43620    0.91920    0.14940    1.000
    C56      C        0.01810    0.58950    0.75000    1.000
    C57      C        0.33870    0.96060    0.25000    1.000
    C58      C        0.33450    0.97770    0.85275    1.000
    C59      C        0.70630    0.20290    0.75000    1.000
    C60      C        0.51810    0.91050    0.25000    1.000
    C61      C        0.16550    0.47770    0.85275    1.000
    C62      C        0.33450    0.97770    0.64725    1.000
    C63      C        0.89320    0.37780    0.64980    1.000
    C64      C        0.48880    0.00150    0.04910    1.000
    C65      C        0.43210    0.93320    0.95230    1.000
    C66      C        0.99010    0.41730    0.85102    1.000
    C67      C        0.83740    0.60350    0.55090    1.000
    C68      C        0.58970    0.86160    0.04960    1.000
    C69      C        0.85320    0.61140    0.14751    1.000
    C70      C        0.00990    0.58270    0.14898    1.000
    C71      C        0.23740    0.03730    0.45010    1.000
    C72      C        0.13680    0.37210    0.25000    1.000
    C73      C        0.26050    0.51940    0.64460    1.000
    C74      C        0.16260    0.39650    0.44910    1.000
    C75      C        0.73970    0.50480    0.75000    1.000
    C76      C        0.83450    0.52230    0.14725    1.000
    C77      C        0.67190    0.01230    0.55080    1.000
    C78      C        0.98880    0.49850    0.95090    1.000
    C79      C        0.91030    0.36160    0.45040    1.000
    C80      C        0.61790    0.87440    0.25000    1.000
    C81      C        0.35320    0.88860    0.64751    1.000
    C82      C        0.00240    0.41070    0.04990    1.000
    C83      C        0.76050    0.98060    0.35540    1.000
    C84      C        0.23950    0.01940    0.64460    1.000
    C85      C        0.56790    0.06680    0.45230    1.000
    C86      C        0.50770    0.99230    0.35016    1.000
    C87      C        0.73740    0.46270    0.95010    1.000
    C88      C        0.66260    0.10350    0.55090    1.000
    C89      C        0.98190    0.41050    0.25000    1.000
    C90      C        0.26050    0.51940    0.85540    1.000
    C91      C        0.11790    0.62560    0.75000    1.000
    C92      C        0.64680    0.11140    0.14751    1.000
    C93      C        0.99390    0.50210    0.75000    1.000
    C94      C        0.73740    0.46270    0.54990    1.000
    C95      C        0.83740    0.60350    0.94910    1.000
    C96      C        0.49010    0.08270    0.35102    1.000
    C97      C        0.56380    0.08080    0.85060    1.000
    C98      C        0.43920    0.92510    0.75000    1.000
    C99      C        0.66550    0.02230    0.14725    1.000
    C100     C        0.50610    0.00210    0.75000    1.000
    C101     C        0.20630    0.29710    0.25000    1.000
    C102     C        0.86320    0.62790    0.75000    1.000
    C103     C        0.41030    0.13840    0.95040    1.000
    C104     C        0.39320    0.12220    0.14980    1.000
    C105     C        0.67190    0.01230    0.94920    1.000
    C106     C        0.24260    0.33160    0.45000    1.000
    C107     C        0.33740    0.89650    0.44910    1.000
    C108     C        0.23970    0.99520    0.25000    1.000
    C109     C        0.32810    0.98770    0.44920    1.000
    C110     C        0.06080    0.42510    0.75000    1.000
    C111     C        0.43620    0.91920    0.35060    1.000
    C112     C        0.74260    0.16840    0.95000    1.000
    C113     C        0.41030    0.13840    0.54960    1.000
    C114     C        0.01120    0.50150    0.45090    1.000
    C115     C        0.64680    0.11140    0.35249    1.000
    C116     C        0.93210    0.56680    0.45230    1.000
    C117     C        0.75740    0.66840    0.95000    1.000
    C118     C        0.93620    0.58080    0.64940    1.000
    C119     C        0.60680    0.87780    0.64980    1.000
    C120     C        0.25740    0.83160    0.45000    1.000
    C121     C        0.79370    0.70290    0.75000    1.000
    C122     C        0.66550    0.02230    0.35275    1.000
    C123     C        0.16550    0.47770    0.64725    1.000
    C124     C        0.99230    0.49230    0.35016    1.000
    C125     C        0.22010    0.31760    0.64720    1.000
    C126     C        0.26030    0.49520    0.25000    1.000
    C127     C        0.98880    0.49850    0.54910    1.000
    C128     C        0.88210    0.37440    0.25000    1.000
    C129     C        0.06380    0.41920    0.35060    1.000
    C130     C        0.26260    0.53730    0.04990    1.000
    C131     C        0.76050    0.98060    0.14460    1.000
    C132     C        0.24260    0.33160    0.05000    1.000
    C133     C        0.00770    0.50770    0.85016    1.000
    C134     C        0.33740    0.89650    0.05090    1.000
    C135     C        0.32810    0.98770    0.05080    1.000
    C136     C        0.76260    0.96270    0.54990    1.000
    C137     C        0.10680    0.62220    0.14980    1.000
    C138     C        0.27990    0.81760    0.85280    1.000
    C139     C        0.99230    0.49230    0.14984    1.000
    C140     C        0.08970    0.63840    0.95040    1.000
    C141     C        0.91030    0.36160    0.04960    1.000
    C142     C        0.08970    0.63840    0.54960    1.000
    C143     C        0.73950    0.48060    0.14460    1.000
    C144     C        0.56380    0.08080    0.64940    1.000
    C145     C        0.76030    0.00480    0.75000    1.000
    C146     C        0.93620    0.58080    0.85060    1.000
    C147     C        0.83450    0.52230    0.35275    1.000
    C148     C        0.14680    0.38860    0.85249    1.000
    C149     C        0.50240    0.08930    0.95010    1.000
    C150     C        0.99010    0.41730    0.64898    1.000
    C151     C        0.63680    0.12790    0.75000    1.000
    C152     C        0.66260    0.10350    0.94910    1.000
    C153     C        0.16130    0.46060    0.25000    1.000
    C154     C        0.49230    0.00770    0.85016    1.000
    C155     C        0.48190    0.08950    0.75000    1.000
    C156     C        0.50770    0.99230    0.14984    1.000
    C157     C        0.48880    0.00150    0.45090    1.000
    C158     C        0.26260    0.53730    0.45010    1.000
    C159     C        0.22010    0.31760    0.85280    1.000
    C160     C        0.50990    0.91730    0.64898    1.000
    N1       N        0.04770    0.34700    0.25000    1.000
    N2       N        0.59560    0.96180    0.55026    1.000
    N3       N        0.90440    0.46180    0.94974    1.000
    N4       N        0.92200    0.64130    0.94974    1.000
    N5       N        0.07800    0.35870    0.05026    1.000
    N6       N        0.59560    0.96180    0.94974    1.000
    N7       N        0.40370    0.03600    0.64847    1.000
    N8       N        0.05820    0.35940    0.64782    1.000
    N9       N        0.90370    0.46400    0.14847    1.000
    N10      N        0.54770    0.15300    0.75000    1.000
    N11      N        0.94180    0.64060    0.35218    1.000
    N12      N        0.42200    0.85870    0.44974    1.000
    N13      N        0.92200    0.64130    0.55026    1.000
    N14      N        0.59630    0.96400    0.14847    1.000
    N15      N        0.40370    0.03600    0.85153    1.000
    N16      N        0.90420    0.47870    0.75000    1.000
    N17      N        0.44180    0.85940    0.64782    1.000
    N18      N        0.45230    0.84700    0.25000    1.000
    N19      N        0.94180    0.64060    0.14782    1.000
    N20      N        0.40440    0.03820    0.44974    1.000
    N21      N        0.90370    0.46400    0.35153    1.000
    N22      N        0.40420    0.02130    0.25000    1.000
    N23      N        0.09580    0.52130    0.25000    1.000
    N24      N        0.07800    0.35870    0.44974    1.000
    N25      N        0.09630    0.53600    0.85153    1.000
    N26      N        0.90440    0.46180    0.55026    1.000
    N27      N        0.57800    0.14130    0.94974    1.000
    N28      N        0.59630    0.96400    0.35153    1.000
    N29      N        0.09560    0.53820    0.05026    1.000
    N30      N        0.44180    0.85940    0.85218    1.000
    N31      N        0.55820    0.14060    0.14782    1.000
    N32      N        0.05820    0.35940    0.85218    1.000
    N33      N        0.09630    0.53600    0.64847    1.000
    N34      N        0.55820    0.14060    0.35218    1.000
    N35      N        0.09560    0.53820    0.44974    1.000
    N36      N        0.59580    0.97870    0.75000    1.000
    N37      N        0.40440    0.03820    0.05026    1.000
    N38      N        0.42200    0.85870    0.05026    1.000
    N39      N        0.57800    0.14130    0.55026    1.000
    N40      N        0.95230    0.65300    0.75000    1.000
    O1       O        0.85560    0.55940    0.25000    1.000
    O2       O        0.24160    0.28330    0.88514    1.000
    O3       O        0.24520    0.11960    0.04986    1.000
    O4       O        0.16450    0.99470    0.45120    1.000
    O5       O        0.33550    0.49470    0.04880    1.000
    O6       O        0.23310    0.26760    0.21755    1.000
    O7       O        0.73310    0.23240    0.78245    1.000
    O8       O        0.24590    0.79470    0.82038    1.000
    O9       O        0.64650    0.06200    0.64696    1.000
    O10      O        0.97810    0.65060    0.25000    1.000
    O11      O        0.32960    0.47040    0.85750    1.000
    O12      O        0.12360    0.65850    0.91758    1.000
    O13      O        0.37710    0.15850    0.51620    1.000
    O14      O        0.17040    0.97040    0.64250    1.000
    O15      O        0.26750    0.57850    0.25000    1.000
    O16      O        0.25410    0.29470    0.67962    1.000
    O17      O        0.34630    0.14030    0.78330    1.000
    O18      O        0.73310    0.23240    0.71755    1.000
    O19      O        0.64800    0.03860    0.04694    1.000
    O20      O        0.82400    0.05530    0.75000    1.000
    O21      O        0.64800    0.03860    0.45306    1.000
    O22      O        0.54270    0.14770    0.04786    1.000
    O23      O        0.62360    0.84150    0.08242    1.000
    O24      O        0.71620    0.68670    0.91806    1.000
    O25      O        0.35200    0.96140    0.54694    1.000
    O26      O        0.75480    0.88040    0.95014    1.000
    O27      O        0.33550    0.49470    0.45120    1.000
    O28      O        0.76170    0.89760    0.14465    1.000
    O29      O        0.74170    0.70620    0.98183    1.000
    O30      O        0.32400    0.44470    0.25000    1.000
    O31      O        0.14800    0.46140    0.95306    1.000
    O32      O        0.45730    0.85230    0.95214    1.000
    O33      O        0.75830    0.20620    0.98183    1.000
    O34      O        0.63690    0.84850    0.88249    1.000
    O35      O        0.47810    0.84940    0.75000    1.000
    O36      O        0.13690    0.65150    0.38249    1.000
    O37      O        0.97040    0.65760    0.65062    1.000
    O38      O        0.24160    0.28330    0.61486    1.000
    O39      O        0.73830    0.39760    0.14465    1.000
    O40      O        0.52960    0.15760    0.84938    1.000
    O41      O        0.02960    0.34240    0.15062    1.000
    O42      O        0.47040    0.84240    0.15062    1.000
    O43      O        0.12360    0.65850    0.58242    1.000
    O44      O        0.64800    0.87360    0.68265    1.000
    O45      O        0.25480    0.61960    0.04986    1.000
    O46      O        0.37710    0.15850    0.98380    1.000
    O47      O        0.04270    0.35230    0.54786    1.000
    O48      O        0.95730    0.64770    0.45214    1.000
    O49      O        0.87640    0.34150    0.08242    1.000
    O50      O        0.85350    0.56200    0.64696    1.000
    O51      O        0.24170    0.79380    0.01817    1.000
    O52      O        0.54270    0.14770    0.45214    1.000
    O53      O        0.23830    0.10240    0.85535    1.000
    O54      O        0.78380    0.18670    0.91806    1.000
    O55      O        0.15370    0.64030    0.78330    1.000
    O56      O        0.84630    0.35970    0.21670    1.000
    O57      O        0.32960    0.47040    0.64250    1.000
    O58      O        0.14800    0.62640    0.31735    1.000
    O59      O        0.23830    0.10240    0.64465    1.000
    O60      O        0.25840    0.78330    0.61486    1.000
    O61      O        0.75410    0.20530    0.17962    1.000
    O62      O        0.25480    0.61960    0.45014    1.000
    O63      O        0.35200    0.12640    0.31735    1.000
    O64      O        0.73250    0.42150    0.75000    1.000
    O65      O        0.28380    0.31330    0.08194    1.000
    O66      O        0.26170    0.60240    0.85535    1.000
    O67      O        0.52190    0.15060    0.25000    1.000
    O68      O        0.73830    0.39760    0.35535    1.000
    O69      O        0.87640    0.34150    0.41758    1.000
    O70      O        0.74170    0.70620    0.51817    1.000
    O71      O        0.74590    0.70530    0.32038    1.000
    O72      O        0.62290    0.84150    0.01620    1.000
    O73      O        0.35200    0.12640    0.18265    1.000
    O74      O        0.35350    0.93800    0.35304    1.000
    O75      O        0.25830    0.29380    0.01817    1.000
    O76      O        0.62360    0.84150    0.41758    1.000
    O77      O        0.83550    0.00530    0.54880    1.000
    O78      O        0.67600    0.55530    0.75000    1.000
    O79      O        0.64800    0.87360    0.81735    1.000
    O80      O        0.82960    0.02960    0.14250    1.000
    O81      O        0.26170    0.60240    0.64465    1.000
    O82      O        0.34630    0.14030    0.71670    1.000
    O83      O        0.75840    0.71670    0.38514    1.000
    O84      O        0.71620    0.68670    0.58194    1.000
    O85      O        0.78380    0.18670    0.58194    1.000
    O86      O        0.14650    0.43800    0.35304    1.000
    O87      O        0.35560    0.94060    0.75000    1.000
    O88      O        0.64440    0.05940    0.25000    1.000
    O89      O        0.35350    0.93800    0.14696    1.000
    O90      O        0.14440    0.44060    0.75000    1.000
    O91      O        0.16450    0.99470    0.04880    1.000
    O92      O        0.85200    0.37360    0.81735    1.000
    O93      O        0.86310    0.34850    0.61751    1.000
    O94      O        0.75840    0.71670    0.11486    1.000
    O95      O        0.35200    0.96140    0.95306    1.000
    O96      O        0.76690    0.73240    0.71755    1.000
    O97      O        0.14650    0.43800    0.14696    1.000
    O98      O        0.24590    0.79470    0.67962    1.000
    O99      O        0.84630    0.35970    0.28330    1.000
    O100     O        0.47040    0.84240    0.34938    1.000
    O101     O        0.63690    0.84850    0.61751    1.000
    O102     O        0.21620    0.81330    0.41806    1.000
    O103     O        0.36310    0.15150    0.11751    1.000
    O104     O        0.17600    0.94470    0.25000    1.000
    O105     O        0.85200    0.53860    0.45306    1.000
    O106     O        0.75480    0.88040    0.54986    1.000
    O107     O        0.97040    0.65760    0.84938    1.000
    O108     O        0.74160    0.21670    0.11486    1.000
    O109     O        0.15370    0.64030    0.71670    1.000
    O110     O        0.36310    0.15150    0.38249    1.000
    O111     O        0.37640    0.15850    0.58242    1.000
    O112     O        0.87710    0.34150    0.48380    1.000
    O113     O        0.75830    0.20620    0.51817    1.000
    O114     O        0.76750    0.92150    0.75000    1.000
    O115     O        0.24520    0.11960    0.45014    1.000
    O116     O        0.76690    0.73240    0.78245    1.000
    O117     O        0.76170    0.89760    0.35535    1.000
    O118     O        0.85350    0.56200    0.85304    1.000
    O119     O        0.37640    0.15850    0.91758    1.000
    O120     O        0.75410    0.20530    0.32038    1.000
    O121     O        0.87710    0.34150    0.01620    1.000
    O122     O        0.45730    0.85230    0.54786    1.000
    O123     O        0.82960    0.02960    0.35750    1.000
    O124     O        0.83550    0.00530    0.95120    1.000
    O125     O        0.66450    0.50530    0.95120    1.000
    O126     O        0.02190    0.34940    0.75000    1.000
    O127     O        0.66450    0.50530    0.54880    1.000
    O128     O        0.86310    0.34850    0.88249    1.000
    O129     O        0.95730    0.64770    0.04786    1.000
    O130     O        0.14800    0.62640    0.18265    1.000
    O131     O        0.28380    0.31330    0.41806    1.000
    O132     O        0.04270    0.35230    0.95214    1.000
    O133     O        0.26690    0.76760    0.28245    1.000
    O134     O        0.74520    0.38040    0.95014    1.000
    O135     O        0.74160    0.21670    0.38514    1.000
    O136     O        0.65370    0.85970    0.21670    1.000
    O137     O        0.25410    0.29470    0.82038    1.000
    O138     O        0.25830    0.29380    0.48183    1.000
    O139     O        0.65370    0.85970    0.28330    1.000
    O140     O        0.12290    0.65850    0.51620    1.000
    O141     O        0.74520    0.38040    0.54986    1.000
    O142     O        0.17040    0.97040    0.85750    1.000
    O143     O        0.52960    0.15760    0.65062    1.000
    O144     O        0.74590    0.70530    0.17962    1.000
    O145     O        0.26690    0.76760    0.21755    1.000
    O146     O        0.12290    0.65850    0.98380    1.000
    O147     O        0.23310    0.26760    0.28245    1.000
    O148     O        0.13690    0.65150    0.11751    1.000
    O149     O        0.85200    0.53860    0.04694    1.000
    O150     O        0.23250    0.07850    0.25000    1.000
    O151     O        0.24170    0.79380    0.48183    1.000
    O152     O        0.85200    0.37360    0.68265    1.000
    O153     O        0.25840    0.78330    0.88514    1.000
    O154     O        0.64650    0.06200    0.85304    1.000
    O155     O        0.62290    0.84150    0.48380    1.000
    O156     O        0.21620    0.81330    0.08194    1.000
    O157     O        0.67040    0.52960    0.35750    1.000
    O158     O        0.02960    0.34240    0.34938    1.000
    O159     O        0.14800    0.46140    0.54694    1.000
    O160     O        0.67040    0.52960    0.14250    1.000
