# CIF file generated by openbabel 3.1.0, see https://openbabel.org
data_I
_chemical_name_common 'image0'
_cell_length_a 23.342
_cell_length_b 20.685
_cell_length_c 12.5402
_cell_angle_alpha 90
_cell_angle_beta 97.97
_cell_angle_gamma 90
_space_group_name_H-M_alt 'P 1'
_space_group_name_Hall 'P 1'
loop_
    _symmetry_equiv_pos_as_xyz
    x,y,z
loop_
    _atom_site_label
    _atom_site_type_symbol
    _atom_site_fract_x
    _atom_site_fract_y
    _atom_site_fract_z
    _atom_site_occupancy
    Ag1      Ag       0.26320    0.92350    0.56500    1.000
    N1       N        0.33300    0.95000    0.48300    1.000
    N2       N        0.18380    0.88700    0.46200    1.000
    N3       N        0.50060    0.53380    0.09500    1.000
    N4       N        0.08200    0.84400    0.34500    1.000
    C1       C        0.47600    0.73000    0.32000    1.000
    H1       H        0.45850    0.70800    0.37150    1.000
    C2       C        0.15300    0.92100    0.38700    1.000
    H2       H        0.16600    0.96270    0.37750    1.000
    C3       C        0.47600    0.79800    0.32100    1.000
    H3       H        0.45900    0.82060    0.37190    1.000
    C4       C        0.54800    0.50900    0.06800    1.000
    H4       H        0.58280    0.51540    0.11310    1.000
    C5       C        0.45300    0.52600    0.02700    1.000
    H5       H        0.41890    0.54440    0.04270    1.000
    C6       C        0.39200    0.93700    0.51600    1.000
    H6       H        0.40410    0.92500    0.58640    1.000
    C7       C        0.10800    0.90300    0.32600    1.000
    H7       H        0.09160    0.92880    0.27000    1.000
    C8       C        0.11600    0.80700    0.41500    1.000
    H8       H        0.10270    0.76590    0.42810    1.000
    C9       C        0.37000    0.97900    0.31500    1.000
    H9       H        0.36130    0.99440    0.24500    1.000
    N5       N        0.42500    0.96100    0.35300    1.000
    C10      C        0.43000    0.94200    0.44700    1.000
    H10      H        0.46740    0.92950    0.47560    1.000
    C11      C        0.16800    0.82500    0.46800    1.000
    H11      H        0.19190    0.79530    0.50810    1.000
    C12      C        0.33000    0.97600    0.37700    1.000
    H12      H        0.29380    0.99360    0.34830    1.000
    C13      C        0.97800    0.66000    0.33000    1.000
    H13      H        0.96610    0.68160    0.38820    1.000
    C14      C        0.97300    0.59800    0.32800    1.000
    H14      H        0.95290    0.57780    0.37690    1.000
    Ag2      Ag       0.76320    0.42350    0.56500    1.000
    N6       N        0.83300    0.45000    0.48300    1.000
    N7       N        0.68380    0.38700    0.46200    1.000
    N8       N        0.00060    0.03380    0.09500    1.000
    N9       N        0.58200    0.34400    0.34500    1.000
    C15      C        0.97600    0.23000    0.32000    1.000
    H15      H        0.95850    0.20800    0.37150    1.000
    C16      C        0.65300    0.42100    0.38700    1.000
    H16      H        0.66600    0.46270    0.37750    1.000
    C17      C        0.97600    0.29800    0.32100    1.000
    H17      H        0.95900    0.32060    0.37190    1.000
    C18      C        0.04800    0.00900    0.06800    1.000
    H18      H        0.08280    0.01540    0.11310    1.000
    C19      C        0.95300    0.02600    0.02700    1.000
    H19      H        0.91890    0.04440    0.04270    1.000
    C20      C        0.89200    0.43700    0.51600    1.000
    H20      H        0.90410    0.42500    0.58640    1.000
    C21      C        0.60800    0.40300    0.32600    1.000
    H21      H        0.59160    0.42880    0.27000    1.000
    C22      C        0.61600    0.30700    0.41500    1.000
    H22      H        0.60270    0.26590    0.42810    1.000
    C23      C        0.87000    0.47900    0.31500    1.000
    H23      H        0.86130    0.49440    0.24500    1.000
    N10      N        0.92500    0.46100    0.35300    1.000
    C24      C        0.93000    0.44200    0.44700    1.000
    H24      H        0.96740    0.42950    0.47560    1.000
    C25      C        0.66800    0.32500    0.46800    1.000
    H25      H        0.69190    0.29530    0.50810    1.000
    C26      C        0.83000    0.47600    0.37700    1.000
    H26      H        0.79380    0.49360    0.34830    1.000
    C27      C        0.47800    0.16000    0.33000    1.000
    H27      H        0.46610    0.18160    0.38820    1.000
    C28      C        0.47300    0.09800    0.32800    1.000
    H28      H        0.45290    0.07780    0.37690    1.000
    Ag3      Ag       0.73680    0.92350    0.93500    1.000
    N11      N        0.66700    0.95000    0.01700    1.000
    N12      N        0.81620    0.88700    0.03800    1.000
    N13      N        0.49940    0.53380    0.40500    1.000
    N14      N        0.91800    0.84400    0.15500    1.000
    C29      C        0.52400    0.73000    0.18000    1.000
    H29      H        0.54150    0.70800    0.12850    1.000
    C30      C        0.84700    0.92100    0.11300    1.000
    H30      H        0.83400    0.96270    0.12250    1.000
    C31      C        0.52400    0.79800    0.17900    1.000
    H31      H        0.54100    0.82060    0.12810    1.000
    C32      C        0.45200    0.50900    0.43200    1.000
    H32      H        0.41720    0.51540    0.38690    1.000
    C33      C        0.54700    0.52600    0.47300    1.000
    H33      H        0.58110    0.54440    0.45730    1.000
    C34      C        0.60800    0.93700    0.98400    1.000
    H34      H        0.59590    0.92500    0.91360    1.000
    C35      C        0.89200    0.90300    0.17400    1.000
    H35      H        0.90840    0.92880    0.23000    1.000
    C36      C        0.88400    0.80700    0.08500    1.000
    H36      H        0.89730    0.76590    0.07190    1.000
    C37      C        0.63000    0.97900    0.18500    1.000
    H37      H        0.63870    0.99440    0.25500    1.000
    N15      N        0.57500    0.96100    0.14700    1.000
    C38      C        0.57000    0.94200    0.05300    1.000
    H38      H        0.53260    0.92950    0.02440    1.000
    C39      C        0.83200    0.82500    0.03200    1.000
    H39      H        0.80810    0.79530    0.99190    1.000
    C40      C        0.67000    0.97600    0.12300    1.000
    H40      H        0.70620    0.99360    0.15170    1.000
    C41      C        0.02200    0.66000    0.17000    1.000
    H41      H        0.03390    0.68160    0.11180    1.000
    C42      C        0.02700    0.59800    0.17200    1.000
    H42      H        0.04710    0.57780    0.12310    1.000
    Ag4      Ag       0.23680    0.42350    0.93500    1.000
    N16      N        0.16700    0.45000    0.01700    1.000
    N17      N        0.31620    0.38700    0.03800    1.000
    N18      N        0.99940    0.03380    0.40500    1.000
    N19      N        0.41800    0.34400    0.15500    1.000
    C43      C        0.02400    0.23000    0.18000    1.000
    H43      H        0.04150    0.20800    0.12850    1.000
    C44      C        0.34700    0.42100    0.11300    1.000
    H44      H        0.33400    0.46270    0.12250    1.000
    C45      C        0.02400    0.29800    0.17900    1.000
    H45      H        0.04100    0.32060    0.12810    1.000
    C46      C        0.95200    0.00900    0.43200    1.000
    H46      H        0.91720    0.01540    0.38690    1.000
    C47      C        0.04700    0.02600    0.47300    1.000
    H47      H        0.08110    0.04440    0.45730    1.000
    C48      C        0.10800    0.43700    0.98400    1.000
    H48      H        0.09590    0.42500    0.91360    1.000
    C49      C        0.39200    0.40300    0.17400    1.000
    H49      H        0.40840    0.42880    0.23000    1.000
    C50      C        0.38400    0.30700    0.08500    1.000
    H50      H        0.39730    0.26590    0.07190    1.000
    C51      C        0.13000    0.47900    0.18500    1.000
    H51      H        0.13870    0.49440    0.25500    1.000
    N20      N        0.07500    0.46100    0.14700    1.000
    C52      C        0.07000    0.44200    0.05300    1.000
    H52      H        0.03260    0.42950    0.02440    1.000
    C53      C        0.33200    0.32500    0.03200    1.000
    H53      H        0.30810    0.29530    0.99190    1.000
    C54      C        0.17000    0.47600    0.12300    1.000
    H54      H        0.20620    0.49360    0.15170    1.000
    C55      C        0.52200    0.16000    0.17000    1.000
    H55      H        0.53390    0.18160    0.11180    1.000
    C56      C        0.52700    0.09800    0.17200    1.000
    H56      H        0.54710    0.07780    0.12310    1.000
    Ag5      Ag       0.73680    0.07650    0.43500    1.000
    N21      N        0.66700    0.05000    0.51700    1.000
    N22      N        0.81620    0.11300    0.53800    1.000
    N23      N        0.49940    0.46620    0.90500    1.000
    N24      N        0.91800    0.15600    0.65500    1.000
    C57      C        0.52400    0.27000    0.68000    1.000
    H57      H        0.54150    0.29200    0.62850    1.000
    C58      C        0.84700    0.07900    0.61300    1.000
    H58      H        0.83400    0.03730    0.62250    1.000
    C59      C        0.52400    0.20200    0.67900    1.000
    H59      H        0.54100    0.17940    0.62810    1.000
    C60      C        0.45200    0.49100    0.93200    1.000
    H60      H        0.41720    0.48460    0.88690    1.000
    C61      C        0.54700    0.47400    0.97300    1.000
    H61      H        0.58110    0.45560    0.95730    1.000
    C62      C        0.60800    0.06300    0.48400    1.000
    H62      H        0.59590    0.07500    0.41360    1.000
    C63      C        0.89200    0.09700    0.67400    1.000
    H63      H        0.90840    0.07120    0.73000    1.000
    C64      C        0.88400    0.19300    0.58500    1.000
    H64      H        0.89730    0.23410    0.57190    1.000
    C65      C        0.63000    0.02100    0.68500    1.000
    H65      H        0.63870    0.00560    0.75500    1.000
    N25      N        0.57500    0.03900    0.64700    1.000
    C66      C        0.57000    0.05800    0.55300    1.000
    H66      H        0.53260    0.07050    0.52440    1.000
    C67      C        0.83200    0.17500    0.53200    1.000
    H67      H        0.80810    0.20470    0.49190    1.000
    C68      C        0.67000    0.02400    0.62300    1.000
    H68      H        0.70620    0.00640    0.65170    1.000
    C69      C        0.02200    0.34000    0.67000    1.000
    H69      H        0.03390    0.31840    0.61180    1.000
    C70      C        0.02700    0.40200    0.67200    1.000
    H70      H        0.04710    0.42220    0.62310    1.000
    Ag6      Ag       0.23680    0.57650    0.43500    1.000
    N26      N        0.16700    0.55000    0.51700    1.000
    N27      N        0.31620    0.61300    0.53800    1.000
    N28      N        0.99940    0.96620    0.90500    1.000
    N29      N        0.41800    0.65600    0.65500    1.000
    C71      C        0.02400    0.77000    0.68000    1.000
    H71      H        0.04150    0.79200    0.62850    1.000
    C72      C        0.34700    0.57900    0.61300    1.000
    H72      H        0.33400    0.53730    0.62250    1.000
    C73      C        0.02400    0.70200    0.67900    1.000
    H73      H        0.04100    0.67940    0.62810    1.000
    C74      C        0.95200    0.99100    0.93200    1.000
    H74      H        0.91720    0.98460    0.88690    1.000
    C75      C        0.04700    0.97400    0.97300    1.000
    H75      H        0.08110    0.95560    0.95730    1.000
    C76      C        0.10800    0.56300    0.48400    1.000
    H76      H        0.09590    0.57500    0.41360    1.000
    C77      C        0.39200    0.59700    0.67400    1.000
    H77      H        0.40840    0.57120    0.73000    1.000
    C78      C        0.38400    0.69300    0.58500    1.000
    H78      H        0.39730    0.73410    0.57190    1.000
    C79      C        0.13000    0.52100    0.68500    1.000
    H79      H        0.13870    0.50560    0.75500    1.000
    N30      N        0.07500    0.53900    0.64700    1.000
    C80      C        0.07000    0.55800    0.55300    1.000
    H80      H        0.03260    0.57050    0.52440    1.000
    C81      C        0.33200    0.67500    0.53200    1.000
    H81      H        0.30810    0.70470    0.49190    1.000
    C82      C        0.17000    0.52400    0.62300    1.000
    H82      H        0.20620    0.50640    0.65170    1.000
    C83      C        0.52200    0.84000    0.67000    1.000
    H83      H        0.53390    0.81840    0.61180    1.000
    C84      C        0.52700    0.90200    0.67200    1.000
    H84      H        0.54710    0.92220    0.62310    1.000
    Ag7      Ag       0.26320    0.07650    0.06500    1.000
    N31      N        0.33300    0.05000    0.98300    1.000
    N32      N        0.18380    0.11300    0.96200    1.000
    N33      N        0.50060    0.46620    0.59500    1.000
    N34      N        0.08200    0.15600    0.84500    1.000
    C85      C        0.47600    0.27000    0.82000    1.000
    H85      H        0.45850    0.29200    0.87150    1.000
    C86      C        0.15300    0.07900    0.88700    1.000
    H86      H        0.16600    0.03730    0.87750    1.000
    C87      C        0.47600    0.20200    0.82100    1.000
    H87      H        0.45900    0.17940    0.87190    1.000
    C88      C        0.54800    0.49100    0.56800    1.000
    H88      H        0.58280    0.48460    0.61310    1.000
    C89      C        0.45300    0.47400    0.52700    1.000
    H89      H        0.41890    0.45560    0.54270    1.000
    C90      C        0.39200    0.06300    0.01600    1.000
    H90      H        0.40410    0.07500    0.08640    1.000
    C91      C        0.10800    0.09700    0.82600    1.000
    H91      H        0.09160    0.07120    0.77000    1.000
    C92      C        0.11600    0.19300    0.91500    1.000
    H92      H        0.10270    0.23410    0.92810    1.000
    C93      C        0.37000    0.02100    0.81500    1.000
    H93      H        0.36130    0.00560    0.74500    1.000
    N35      N        0.42500    0.03900    0.85300    1.000
    C94      C        0.43000    0.05800    0.94700    1.000
    H94      H        0.46740    0.07050    0.97560    1.000
    C95      C        0.16800    0.17500    0.96800    1.000
    H95      H        0.19190    0.20470    0.00810    1.000
    C96      C        0.33000    0.02400    0.87700    1.000
    H96      H        0.29380    0.00640    0.84830    1.000
    C97      C        0.97800    0.34000    0.83000    1.000
    H97      H        0.96610    0.31840    0.88820    1.000
    C98      C        0.97300    0.40200    0.82800    1.000
    H98      H        0.95290    0.42220    0.87690    1.000
    Ag8      Ag       0.76320    0.57650    0.06500    1.000
    N36      N        0.83300    0.55000    0.98300    1.000
    N37      N        0.68380    0.61300    0.96200    1.000
    N38      N        0.00060    0.96620    0.59500    1.000
    N39      N        0.58200    0.65600    0.84500    1.000
    C99      C        0.97600    0.77000    0.82000    1.000
    H99      H        0.95850    0.79200    0.87150    1.000
    C100     C        0.65300    0.57900    0.88700    1.000
    H100     H        0.66600    0.53730    0.87750    1.000
    C101     C        0.97600    0.70200    0.82100    1.000
    H101     H        0.95900    0.67940    0.87190    1.000
    C102     C        0.04800    0.99100    0.56800    1.000
    H102     H        0.08280    0.98460    0.61310    1.000
    C103     C        0.95300    0.97400    0.52700    1.000
    H103     H        0.91890    0.95560    0.54270    1.000
    C104     C        0.89200    0.56300    0.01600    1.000
    H104     H        0.90410    0.57500    0.08640    1.000
    C105     C        0.60800    0.59700    0.82600    1.000
    H105     H        0.59160    0.57120    0.77000    1.000
    C106     C        0.61600    0.69300    0.91500    1.000
    H106     H        0.60270    0.73410    0.92810    1.000
    C107     C        0.87000    0.52100    0.81500    1.000
    H107     H        0.86130    0.50560    0.74500    1.000
    N40      N        0.92500    0.53900    0.85300    1.000
    C108     C        0.93000    0.55800    0.94700    1.000
    H108     H        0.96740    0.57050    0.97560    1.000
    C109     C        0.66800    0.67500    0.96800    1.000
    H109     H        0.69190    0.70470    0.00810    1.000
    C110     C        0.83000    0.52400    0.87700    1.000
    H110     H        0.79380    0.50640    0.84830    1.000
    C111     C        0.47800    0.84000    0.83000    1.000
    H111     H        0.46610    0.81840    0.88820    1.000
    C112     C        0.47300    0.90200    0.82800    1.000
    H112     H        0.45290    0.92220    0.87690    1.000
    Ag9      Ag       0.50000    0.59000    0.25000    1.000
    Ag10     Ag       0.50000    0.94590    0.25000    1.000
    N41      N        0.50000    0.82900    0.25000    1.000
    N42      N        0.50000    0.69700    0.25000    1.000
    Ag11     Ag       0.00000    0.09000    0.25000    1.000
    Ag12     Ag       0.00000    0.44590    0.25000    1.000
    N43      N        0.00000    0.32900    0.25000    1.000
    N44      N        0.00000    0.19700    0.25000    1.000
    Ag13     Ag       0.50000    0.41000    0.75000    1.000
    Ag14     Ag       0.50000    0.05410    0.75000    1.000
    N45      N        0.50000    0.17100    0.75000    1.000
    N46      N        0.50000    0.30300    0.75000    1.000
    Ag15     Ag       0.00000    0.91000    0.75000    1.000
    Ag16     Ag       0.00000    0.55410    0.75000    1.000
    N47      N        0.00000    0.67100    0.75000    1.000
    N48      N        0.00000    0.80300    0.75000    1.000
    Ag17     Ag       0.00000    0.80750    0.25000    1.000
    N49      N        0.00000    0.69800    0.25000    1.000
    N50      N        0.00000    0.55700    0.25000    1.000
    Ag18     Ag       0.50000    0.30750    0.25000    1.000
    N51      N        0.50000    0.19800    0.25000    1.000
    N52      N        0.50000    0.05700    0.25000    1.000
    Ag19     Ag       0.00000    0.19250    0.75000    1.000
    N53      N        0.00000    0.30200    0.75000    1.000
    N54      N        0.00000    0.44300    0.75000    1.000
    Ag20     Ag       0.50000    0.69250    0.75000    1.000
    N55      N        0.50000    0.80200    0.75000    1.000
    N56      N        0.50000    0.94300    0.75000    1.000
