# CIF file generated by openbabel 3.1.0, see https://openbabel.org
data_I
_chemical_name_common 'BIWSIK_ion_b'
_cell_length_a 25.2317
_cell_length_b 25.2317
_cell_length_c 25.2317
_cell_angle_alpha 109.471
_cell_angle_beta 109.471
_cell_angle_gamma 109.471
_space_group_name_H-M_alt 'P 1'
_space_group_name_Hall 'P 1'
loop_
    _symmetry_equiv_pos_as_xyz
    x,y,z
loop_
    _atom_site_label
    _atom_site_type_symbol
    _atom_site_fract_x
    _atom_site_fract_y
    _atom_site_fract_z
    _atom_site_occupancy
    N1       N        0.14402    0.53641    0.50333    1.000
    N2       N        0.18690    0.53753    0.48403    1.000
    C3       C        0.28590    0.46170    0.51800    1.000
    H4       H        0.27090    0.44660    0.54290    1.000
    C5       C        0.33130    0.44890    0.50700    1.000
    H6       H        0.34690    0.42560    0.52430    1.000
    N8       N        0.03308    0.64069    0.49667    1.000
    N9       N        0.05350    0.70287    0.51597    1.000
    C10      C        0.94370    0.76790    0.48200    1.000
    H11      H        0.90370    0.72800    0.45710    1.000
    C12      C        0.94190    0.82430    0.49300    1.000
    H13      H        0.90130    0.82260    0.47570    1.000
    N15      N        0.96692    0.46359    0.60761    1.000
    N16      N        0.94650    0.46247    0.64937    1.000
    C17      C        0.05630    0.53830    0.82420    1.000
    H18      H        0.09630    0.55340    0.82430    1.000
    C19      C        0.05810    0.55110    0.88240    1.000
    H20      H        0.09870    0.57440    0.92130    1.000
    N22      N        0.85598    0.35931    0.39239    1.000
    N23      N        0.81310    0.29713    0.35063    1.000
    C24      C        0.71410    0.23210    0.17580    1.000
    H25      H        0.72910    0.27200    0.17570    1.000
    C26      C        0.66870    0.17570    0.11760    1.000
    H27      H        0.65310    0.17740    0.07870    1.000
    N29      N        0.50333    0.14402    0.53641    1.000
    N30      N        0.48403    0.18690    0.53753    1.000
    C31      C        0.51800    0.28590    0.46170    1.000
    H32      H        0.54290    0.27090    0.44660    1.000
    C33      C        0.50700    0.33130    0.44890    1.000
    H34      H        0.52430    0.34690    0.42560    1.000
    N36      N        0.49667    0.03308    0.64069    1.000
    N37      N        0.51597    0.05350    0.70287    1.000
    C38      C        0.48200    0.94370    0.76790    1.000
    H39      H        0.45710    0.90370    0.72800    1.000
    C40      C        0.49300    0.94190    0.82430    1.000
    H41      H        0.47570    0.90130    0.82260    1.000
    N43      N        0.60761    0.96692    0.46359    1.000
    N44      N        0.64937    0.94650    0.46247    1.000
    C45      C        0.82420    0.05630    0.53830    1.000
    H46      H        0.82430    0.09630    0.55340    1.000
    C47      C        0.88240    0.05810    0.55110    1.000
    H48      H        0.92130    0.09870    0.57440    1.000
    N50      N        0.39239    0.85598    0.35931    1.000
    N51      N        0.35063    0.81310    0.29713    1.000
    C52      C        0.17580    0.71410    0.23210    1.000
    H53      H        0.17570    0.72910    0.27200    1.000
    C54      C        0.11760    0.66870    0.17570    1.000
    H55      H        0.07870    0.65310    0.17740    1.000
    N57      N        0.53641    0.50333    0.14402    1.000
    N58      N        0.53753    0.48403    0.18690    1.000
    C59      C        0.46170    0.51800    0.28590    1.000
    H60      H        0.44660    0.54290    0.27090    1.000
    C61      C        0.44890    0.50700    0.33130    1.000
    H62      H        0.42560    0.52430    0.34690    1.000
    N64      N        0.64069    0.49667    0.03308    1.000
    N65      N        0.70287    0.51597    0.05350    1.000
    C66      C        0.76790    0.48200    0.94370    1.000
    H67      H        0.72800    0.45710    0.90370    1.000
    C68      C        0.82430    0.49300    0.94190    1.000
    H69      H        0.82260    0.47570    0.90130    1.000
    N71      N        0.46359    0.60761    0.96692    1.000
    N72      N        0.46247    0.64937    0.94650    1.000
    C73      C        0.53830    0.82420    0.05630    1.000
    H74      H        0.55340    0.82430    0.09630    1.000
    C75      C        0.55110    0.88240    0.05810    1.000
    H76      H        0.57440    0.92130    0.09870    1.000
    N78      N        0.35931    0.39239    0.85598    1.000
    N79      N        0.29713    0.35063    0.81310    1.000
    C80      C        0.23210    0.17580    0.71410    1.000
    H81      H        0.27200    0.17570    0.72910    1.000
    C82      C        0.17570    0.11760    0.66870    1.000
    H83      H        0.17740    0.07870    0.65310    1.000
    N85      N        0.35931    0.96692    0.50333    1.000
    N86      N        0.29713    0.94650    0.48403    1.000
    C87      C        0.23210    0.05630    0.51800    1.000
    H88      H        0.27200    0.09630    0.54290    1.000
    C89      C        0.17570    0.05810    0.50700    1.000
    H90      H        0.17740    0.09870    0.52430    1.000
    N92      N        0.46359    0.85598    0.49667    1.000
    N93      N        0.46247    0.81310    0.51597    1.000
    C94      C        0.53830    0.71410    0.48200    1.000
    H95      H        0.55340    0.72910    0.45710    1.000
    C96      C        0.55110    0.66870    0.49300    1.000
    H97      H        0.57440    0.65310    0.47570    1.000
    N99      N        0.64069    0.14402    0.60761    1.000
    N100     N        0.70287    0.18690    0.64937    1.000
    C101     C        0.76790    0.28590    0.82420    1.000
    H102     H        0.72800    0.27090    0.82430    1.000
    C103     C        0.82430    0.33130    0.88240    1.000
    H104     H        0.82260    0.34690    0.92130    1.000
    N106     N        0.53641    0.03308    0.39239    1.000
    N107     N        0.53753    0.05350    0.35063    1.000
    C108     C        0.46170    0.94370    0.17580    1.000
    H109     H        0.44660    0.90370    0.17570    1.000
    C110     C        0.44890    0.94190    0.11760    1.000
    H111     H        0.42560    0.90130    0.07870    1.000
    N113     N        0.03308    0.39239    0.53641    1.000
    N114     N        0.05350    0.35063    0.53753    1.000
    C115     C        0.94370    0.17580    0.46170    1.000
    H116     H        0.90370    0.17570    0.44660    1.000
    C117     C        0.94190    0.11760    0.44890    1.000
    H118     H        0.90130    0.07870    0.42560    1.000
    N120     N        0.14402    0.60761    0.64069    1.000
    N121     N        0.18690    0.64937    0.70287    1.000
    C122     C        0.28590    0.82420    0.76790    1.000
    H123     H        0.27090    0.82430    0.72800    1.000
    C124     C        0.33130    0.88240    0.82430    1.000
    H125     H        0.34690    0.92130    0.82260    1.000
    N127     N        0.85598    0.49667    0.46359    1.000
    N128     N        0.81310    0.51597    0.46247    1.000
    C129     C        0.71410    0.48200    0.53830    1.000
    H130     H        0.72910    0.45710    0.55340    1.000
    C131     C        0.66870    0.49300    0.55110    1.000
    H132     H        0.65310    0.47570    0.57440    1.000
    N134     N        0.96692    0.50333    0.35931    1.000
    N135     N        0.94650    0.48403    0.29713    1.000
    C136     C        0.05630    0.51800    0.23210    1.000
    H137     H        0.09630    0.54290    0.27200    1.000
    C138     C        0.05810    0.50700    0.17570    1.000
    H139     H        0.09870    0.52430    0.17740    1.000
    N141     N        0.60761    0.64069    0.14402    1.000
    N142     N        0.64937    0.70287    0.18690    1.000
    C143     C        0.82420    0.76790    0.28590    1.000
    H144     H        0.82430    0.72800    0.27090    1.000
    C145     C        0.88240    0.82430    0.33130    1.000
    H146     H        0.92130    0.82260    0.34690    1.000
    N148     N        0.39239    0.53641    0.03308    1.000
    N149     N        0.35063    0.53753    0.05350    1.000
    C150     C        0.17580    0.46170    0.94370    1.000
    H151     H        0.17570    0.44660    0.90370    1.000
    C152     C        0.11760    0.44890    0.94190    1.000
    H153     H        0.07870    0.42560    0.90130    1.000
    N155     N        0.50333    0.35931    0.96692    1.000
    N156     N        0.48403    0.29713    0.94650    1.000
    C157     C        0.51800    0.23210    0.05630    1.000
    H158     H        0.54290    0.27200    0.09630    1.000
    C159     C        0.50700    0.17570    0.05810    1.000
    H160     H        0.52430    0.17740    0.09870    1.000
    N162     N        0.49667    0.46359    0.85598    1.000
    N163     N        0.51597    0.46247    0.81310    1.000
    C164     C        0.48200    0.53830    0.71410    1.000
    H165     H        0.45710    0.55340    0.72910    1.000
    C166     C        0.49300    0.55110    0.66870    1.000
    H167     H        0.47570    0.57440    0.65310    1.000
    N169     N        0.85598    0.46359    0.49667    1.000
    N170     N        0.81310    0.46247    0.51597    1.000
    C171     C        0.71410    0.53830    0.48200    1.000
    H172     H        0.72910    0.55340    0.45710    1.000
    C173     C        0.66870    0.55110    0.49300    1.000
    H174     H        0.65310    0.57440    0.47570    1.000
    N176     N        0.96692    0.35931    0.50333    1.000
    N177     N        0.94650    0.29713    0.48403    1.000
    C178     C        0.05630    0.23210    0.51800    1.000
    H179     H        0.09630    0.27200    0.54290    1.000
    C180     C        0.05810    0.17570    0.50700    1.000
    H181     H        0.09870    0.17740    0.52430    1.000
    N183     N        0.03308    0.53641    0.39239    1.000
    N184     N        0.05350    0.53753    0.35063    1.000
    C185     C        0.94370    0.46170    0.17580    1.000
    H186     H        0.90370    0.44660    0.17570    1.000
    C187     C        0.94190    0.44890    0.11760    1.000
    H188     H        0.90130    0.42560    0.07870    1.000
    N190     N        0.14402    0.64069    0.60761    1.000
    N191     N        0.18690    0.70287    0.64937    1.000
    C192     C        0.28590    0.76790    0.82420    1.000
    H193     H        0.27090    0.72800    0.82430    1.000
    C194     C        0.33130    0.82430    0.88240    1.000
    H195     H        0.34690    0.82260    0.92130    1.000
    N197     N        0.49667    0.85598    0.46359    1.000
    N198     N        0.51597    0.81310    0.46247    1.000
    C199     C        0.48200    0.71410    0.53830    1.000
    H200     H        0.45710    0.72910    0.55340    1.000
    C201     C        0.49300    0.66870    0.55110    1.000
    H202     H        0.47570    0.65310    0.57440    1.000
    N204     N        0.50333    0.96692    0.35931    1.000
    N205     N        0.48403    0.94650    0.29713    1.000
    C206     C        0.51800    0.05630    0.23210    1.000
    H207     H        0.54290    0.09630    0.27200    1.000
    C208     C        0.50700    0.05810    0.17570    1.000
    H209     H        0.52430    0.09870    0.17740    1.000
    N211     N        0.39239    0.03308    0.53641    1.000
    N212     N        0.35063    0.05350    0.53753    1.000
    C213     C        0.17580    0.94370    0.46170    1.000
    H214     H        0.17570    0.90370    0.44660    1.000
    C215     C        0.11760    0.94190    0.44890    1.000
    H216     H        0.07870    0.90130    0.42560    1.000
    N218     N        0.60761    0.14402    0.64069    1.000
    N219     N        0.64937    0.18690    0.70287    1.000
    C220     C        0.82420    0.28590    0.76790    1.000
    H221     H        0.82430    0.27090    0.72800    1.000
    C222     C        0.88240    0.33130    0.82430    1.000
    H223     H        0.92130    0.34690    0.82260    1.000
    N225     N        0.46359    0.49667    0.85598    1.000
    N226     N        0.46247    0.51597    0.81310    1.000
    C227     C        0.53830    0.48200    0.71410    1.000
    H228     H        0.55340    0.45710    0.72910    1.000
    C229     C        0.55110    0.49300    0.66870    1.000
    H230     H        0.57440    0.47570    0.65310    1.000
    N232     N        0.35931    0.50333    0.96692    1.000
    N233     N        0.29713    0.48403    0.94650    1.000
    C234     C        0.23210    0.51800    0.05630    1.000
    H235     H        0.27200    0.54290    0.09630    1.000
    C236     C        0.17570    0.50700    0.05810    1.000
    H237     H        0.17740    0.52430    0.09870    1.000
    N239     N        0.53641    0.39239    0.03308    1.000
    N240     N        0.53753    0.35063    0.05350    1.000
    C241     C        0.46170    0.17580    0.94370    1.000
    H242     H        0.44660    0.17570    0.90370    1.000
    C243     C        0.44890    0.11760    0.94190    1.000
    H244     H        0.42560    0.07870    0.90130    1.000
    N246     N        0.64069    0.60761    0.14402    1.000
    N247     N        0.70287    0.64937    0.18690    1.000
    C248     C        0.76790    0.82420    0.28590    1.000
    H249     H        0.72800    0.82430    0.27090    1.000
    C250     C        0.82430    0.88240    0.33130    1.000
    H251     H        0.82260    0.92130    0.34690    1.000
    N253     N        0.64069    0.03308    0.49667    1.000
    N254     N        0.70287    0.05350    0.51597    1.000
    C255     C        0.76790    0.94370    0.48200    1.000
    H256     H        0.72800    0.90370    0.45710    1.000
    C257     C        0.82430    0.94190    0.49300    1.000
    H258     H        0.82260    0.90130    0.47570    1.000
    N260     N        0.53641    0.14402    0.50333    1.000
    N261     N        0.53753    0.18690    0.48403    1.000
    C262     C        0.46170    0.28590    0.51800    1.000
    H263     H        0.44660    0.27090    0.54290    1.000
    C264     C        0.44890    0.33130    0.50700    1.000
    H265     H        0.42560    0.34690    0.52430    1.000
    N267     N        0.35931    0.85598    0.39239    1.000
    N268     N        0.29713    0.81310    0.35063    1.000
    C269     C        0.23210    0.71410    0.17580    1.000
    H270     H        0.27200    0.72910    0.17570    1.000
    C271     C        0.17570    0.66870    0.11760    1.000
    H272     H        0.17740    0.65310    0.07870    1.000
    N274     N        0.46359    0.96692    0.60761    1.000
    N275     N        0.46247    0.94650    0.64937    1.000
    C276     C        0.53830    0.05630    0.82420    1.000
    H277     H        0.55340    0.09630    0.82430    1.000
    C278     C        0.55110    0.05810    0.88240    1.000
    H279     H        0.57440    0.09870    0.92130    1.000
    N281     N        0.96692    0.60761    0.46359    1.000
    N282     N        0.94650    0.64937    0.46247    1.000
    C283     C        0.05630    0.82420    0.53830    1.000
    H284     H        0.09630    0.82430    0.55340    1.000
    C285     C        0.05810    0.88240    0.55110    1.000
    H286     H        0.09870    0.92130    0.57440    1.000
    N288     N        0.85598    0.39239    0.35931    1.000
    N289     N        0.81310    0.35063    0.29713    1.000
    C290     C        0.71410    0.17580    0.23210    1.000
    H291     H        0.72910    0.17570    0.27200    1.000
    C292     C        0.66870    0.11760    0.17570    1.000
    H293     H        0.65310    0.07870    0.17740    1.000
    N295     N        0.14402    0.50333    0.53641    1.000
    N296     N        0.18690    0.48403    0.53753    1.000
    C297     C        0.28590    0.51800    0.46170    1.000
    H298     H        0.27090    0.54290    0.44660    1.000
    C299     C        0.33130    0.50700    0.44890    1.000
    H300     H        0.34690    0.52430    0.42560    1.000
    N302     N        0.03308    0.49667    0.64069    1.000
    N303     N        0.05350    0.51597    0.70287    1.000
    C304     C        0.94370    0.48200    0.76790    1.000
    H305     H        0.90370    0.45710    0.72800    1.000
    C306     C        0.94190    0.49300    0.82430    1.000
    H307     H        0.90130    0.47570    0.82260    1.000
    N309     N        0.39239    0.35931    0.85598    1.000
    N310     N        0.35063    0.29713    0.81310    1.000
    C311     C        0.17580    0.23210    0.71410    1.000
    H312     H        0.17570    0.27200    0.72910    1.000
    C313     C        0.11760    0.17570    0.66870    1.000
    H314     H        0.07870    0.17740    0.65310    1.000
    N316     N        0.60761    0.46359    0.96692    1.000
    N317     N        0.64937    0.46247    0.94650    1.000
    C318     C        0.82420    0.53830    0.05630    1.000
    H319     H        0.82430    0.55340    0.09630    1.000
    C320     C        0.88240    0.55110    0.05810    1.000
    H321     H        0.92130    0.57440    0.09870    1.000
    N323     N        0.49667    0.64069    0.03308    1.000
    N324     N        0.51597    0.70287    0.05350    1.000
    C325     C        0.48200    0.76790    0.94370    1.000
    H326     H        0.45710    0.72800    0.90370    1.000
    C327     C        0.49300    0.82430    0.94190    1.000
    H328     H        0.47570    0.82260    0.90130    1.000
    N330     N        0.50333    0.53641    0.14402    1.000
    N331     N        0.48403    0.53753    0.18690    1.000
    C332     C        0.51800    0.46170    0.28590    1.000
    H333     H        0.54290    0.44660    0.27090    1.000
    C334     C        0.50700    0.44890    0.33130    1.000
    H335     H        0.52430    0.42560    0.34690    1.000
    Mn337    Mn       0.09420    0.59420    0.50000    1.000
    O338     O        0.16810    0.66810    0.50000    1.000
    Mn339    Mn       0.90580    0.40580    0.50000    1.000
    O340     O        0.83190    0.33190    0.50000    1.000
    Mn341    Mn       0.50000    0.09420    0.59420    1.000
    O342     O        0.50000    0.16810    0.66810    1.000
    Mn343    Mn       0.50000    0.90580    0.40580    1.000
    O344     O        0.50000    0.83190    0.33190    1.000
    Mn345    Mn       0.59420    0.50000    0.09420    1.000
    O346     O        0.66810    0.50000    0.16810    1.000
    Mn347    Mn       0.40580    0.50000    0.90580    1.000
    O348     O        0.33190    0.50000    0.83190    1.000
    Mn349    Mn       0.40580    0.90580    0.50000    1.000
    O350     O        0.33190    0.83190    0.50000    1.000
    Mn351    Mn       0.59420    0.09420    0.50000    1.000
    O352     O        0.66810    0.16810    0.50000    1.000
    Mn353    Mn       0.09420    0.50000    0.59420    1.000
    O354     O        0.16810    0.50000    0.66810    1.000
    Mn355    Mn       0.90580    0.50000    0.40580    1.000
    O356     O        0.83190    0.50000    0.33190    1.000
    Mn357    Mn       0.50000    0.59420    0.09420    1.000
    O358     O        0.50000    0.66810    0.16810    1.000
    Mn359    Mn       0.50000    0.40580    0.90580    1.000
    O360     O        0.50000    0.33190    0.83190    1.000
    Cl361    Cl       0.00000    0.50000    0.50000    1.000
    Cl362    Cl       0.50000    0.00000    0.50000    1.000
    Cl363    Cl       0.50000    0.50000    0.00000    1.000
    N376     N        0.41610    0.41610    0.47380    1.000
    N377     N        0.94230    0.94230    0.52620    1.000
    N378     N        0.05770    0.58390    0.00000    1.000
    N379     N        0.58390    0.05770    0.00000    1.000
    N380     N        0.47380    0.41610    0.41610    1.000
    N381     N        0.52620    0.94230    0.94230    1.000
    N382     N        0.00000    0.05770    0.58390    1.000
    N383     N        0.00000    0.58390    0.05770    1.000
    N384     N        0.41610    0.47380    0.41610    1.000
    N385     N        0.94230    0.52620    0.94230    1.000
    N386     N        0.58390    0.00000    0.05770    1.000
    N387     N        0.05770    0.00000    0.58390    1.000
    N388     N        0.05770    0.05770    0.47380    1.000
    N389     N        0.58390    0.58390    0.52620    1.000
    N390     N        0.94230    0.41610    0.00000    1.000
    N391     N        0.41610    0.94230    0.00000    1.000
    N392     N        0.94230    0.00000    0.41610    1.000
    N393     N        0.41610    0.00000    0.94230    1.000
    N394     N        0.58390    0.52620    0.58390    1.000
    N395     N        0.05770    0.47380    0.05770    1.000
    N396     N        0.00000    0.94230    0.41610    1.000
    N397     N        0.00000    0.41610    0.94230    1.000
    N398     N        0.47380    0.05770    0.05770    1.000
    N399     N        0.52620    0.58390    0.58390    1.000
    C400     C        0.21180    0.50520    0.50520    1.000
    C401     C        0.26140    0.49500    0.49500    1.000
    C402     C        0.35500    0.47010    0.47010    1.000
    C403     C        0.39720    0.45240    0.45240    1.000
    C404     C        0.00000    0.70660    0.49480    1.000
    C405     C        0.00000    0.76640    0.50500    1.000
    C406     C        0.00000    0.88490    0.52990    1.000
    C407     C        0.00000    0.94480    0.54760    1.000
    C408     C        0.00000    0.49480    0.70660    1.000
    C409     C        0.00000    0.50500    0.76640    1.000
    C410     C        0.00000    0.52990    0.88490    1.000
    C411     C        0.00000    0.54760    0.94480    1.000
    C412     C        0.78820    0.29340    0.29340    1.000
    C413     C        0.73860    0.23360    0.23360    1.000
    C414     C        0.64500    0.11510    0.11510    1.000
    C415     C        0.60280    0.05520    0.05520    1.000
    C416     C        0.50520    0.21180    0.50520    1.000
    C417     C        0.49500    0.26140    0.49500    1.000
    C418     C        0.47010    0.35500    0.47010    1.000
    C419     C        0.45240    0.39720    0.45240    1.000
    C420     C        0.49480    0.00000    0.70660    1.000
    C421     C        0.50500    0.00000    0.76640    1.000
    C422     C        0.52990    0.00000    0.88490    1.000
    C423     C        0.54760    0.00000    0.94480    1.000
    C424     C        0.70660    0.00000    0.49480    1.000
    C425     C        0.76640    0.00000    0.50500    1.000
    C426     C        0.88490    0.00000    0.52990    1.000
    C427     C        0.94480    0.00000    0.54760    1.000
    C428     C        0.29340    0.78820    0.29340    1.000
    C429     C        0.23360    0.73860    0.23360    1.000
    C430     C        0.11510    0.64500    0.11510    1.000
    C431     C        0.05520    0.60280    0.05520    1.000
    C432     C        0.50520    0.50520    0.21180    1.000
    C433     C        0.49500    0.49500    0.26140    1.000
    C434     C        0.47010    0.47010    0.35500    1.000
    C435     C        0.45240    0.45240    0.39720    1.000
    C436     C        0.70660    0.49480    0.00000    1.000
    C437     C        0.76640    0.50500    0.00000    1.000
    C438     C        0.88490    0.52990    0.00000    1.000
    C439     C        0.94480    0.54760    0.00000    1.000
    C440     C        0.49480    0.70660    0.00000    1.000
    C441     C        0.50500    0.76640    0.00000    1.000
    C442     C        0.52990    0.88490    0.00000    1.000
    C443     C        0.54760    0.94480    0.00000    1.000
    C444     C        0.29340    0.29340    0.78820    1.000
    C445     C        0.23360    0.23360    0.73860    1.000
    C446     C        0.11510    0.11510    0.64500    1.000
    C447     C        0.05520    0.05520    0.60280    1.000
    C448     C        0.29340    0.00000    0.50520    1.000
    C449     C        0.23360    0.00000    0.49500    1.000
    C450     C        0.11510    0.00000    0.47010    1.000
    C451     C        0.05520    0.00000    0.45240    1.000
    C452     C        0.49480    0.78820    0.49480    1.000
    C453     C        0.50500    0.73860    0.50500    1.000
    C454     C        0.52990    0.64500    0.52990    1.000
    C455     C        0.54760    0.60280    0.54760    1.000
    C456     C        0.70660    0.21180    0.70660    1.000
    C457     C        0.76640    0.26140    0.76640    1.000
    C458     C        0.88490    0.35500    0.88490    1.000
    C459     C        0.94480    0.39720    0.94480    1.000
    C460     C        0.50520    0.00000    0.29340    1.000
    C461     C        0.49500    0.00000    0.23360    1.000
    C462     C        0.47010    0.00000    0.11510    1.000
    C463     C        0.45240    0.00000    0.05520    1.000
    C464     C        0.00000    0.29340    0.50520    1.000
    C465     C        0.00000    0.23360    0.49500    1.000
    C466     C        0.00000    0.11510    0.47010    1.000
    C467     C        0.00000    0.05520    0.45240    1.000
    C468     C        0.21180    0.70660    0.70660    1.000
    C469     C        0.26140    0.76640    0.76640    1.000
    C470     C        0.35500    0.88490    0.88490    1.000
    C471     C        0.39720    0.94480    0.94480    1.000
    C472     C        0.78820    0.49480    0.49480    1.000
    C473     C        0.73860    0.50500    0.50500    1.000
    C474     C        0.64500    0.52990    0.52990    1.000
    C475     C        0.60280    0.54760    0.54760    1.000
    C476     C        0.00000    0.50520    0.29340    1.000
    C477     C        0.00000    0.49500    0.23360    1.000
    C478     C        0.00000    0.47010    0.11510    1.000
    C479     C        0.00000    0.45240    0.05520    1.000
    C480     C        0.70660    0.70660    0.21180    1.000
    C481     C        0.76640    0.76640    0.26140    1.000
    C482     C        0.88490    0.88490    0.35500    1.000
    C483     C        0.94480    0.94480    0.39720    1.000
    C484     C        0.29340    0.50520    0.00000    1.000
    C485     C        0.23360    0.49500    0.00000    1.000
    C486     C        0.11510    0.47010    0.00000    1.000
    C487     C        0.05520    0.45240    0.00000    1.000
    C488     C        0.50520    0.29340    0.00000    1.000
    C489     C        0.49500    0.23360    0.00000    1.000
    C490     C        0.47010    0.11510    0.00000    1.000
    C491     C        0.45240    0.05520    0.00000    1.000
    C492     C        0.49480    0.49480    0.78820    1.000
    C493     C        0.50500    0.50500    0.73860    1.000
    C494     C        0.52990    0.52990    0.64500    1.000
    C495     C        0.54760    0.54760    0.60280    1.000
