# CIF file generated by openbabel 3.1.0, see https://openbabel.org
data_I
_chemical_name_common 'QASSUZ_clean'
_cell_length_a 12.4648
_cell_length_b 20.883
_cell_length_c 20.883
_cell_angle_alpha 120
_cell_angle_beta 90
_cell_angle_gamma 90
_space_group_name_H-M_alt 'P 1'
_space_group_name_Hall 'P 1'
loop_
    _symmetry_equiv_pos_as_xyz
    x,y,z
loop_
    _atom_site_label
    _atom_site_type_symbol
    _atom_site_fract_x
    _atom_site_fract_y
    _atom_site_fract_z
    _atom_site_occupancy
    K1       K        0.72195    0.63139    0.04045    1.000
    K2       K        0.61107    0.51982    0.62552    1.000
    K3       K        0.37130    0.19450    0.35000    1.000
    K4       K        0.05528    0.40906    0.36861    1.000
    K5       K        0.94440    0.10570    0.48018    1.000
    K6       K        0.70463    0.15550    0.80550    1.000
    K7       K        0.38862    0.95955    0.59094    1.000
    K8       K        0.27774    0.37448    0.89430    1.000
    K9       K        0.03797    0.65000    0.84450    1.000
    K10      K        0.27805    0.59094    0.95955    1.000
    K11      K        0.38893    0.89430    0.37448    1.000
    K12      K        0.62870    0.84450    0.65000    1.000
    K13      K        0.94472    0.04045    0.63139    1.000
    K14      K        0.05560    0.62552    0.51982    1.000
    K15      K        0.29537    0.35000    0.19450    1.000
    K16      K        0.61138    0.36861    0.40906    1.000
    K17      K        0.72226    0.48018    0.10570    1.000
    K18      K        0.96203    0.80550    0.15550    1.000
    K19      K        0.00000    0.45810    0.00000    1.000
    K20      K        0.33333    0.54190    0.54190    1.000
    K21      K        0.66667    0.00000    0.45810    1.000
    Fe1      Fe       0.53626    0.49258    0.91485    1.000
    Fe2      Fe       0.86959    0.42227    0.50742    1.000
    Fe3      Fe       0.20293    0.08515    0.57773    1.000
    Fe4      Fe       0.46374    0.57773    0.08515    1.000
    Fe5      Fe       0.13041    0.91485    0.49258    1.000
    Fe6      Fe       0.79707    0.50742    0.42227    1.000
    H1       H        0.69300    0.41000    0.73210    1.000
    H2       H        0.76230    0.44510    0.80450    1.000
    H3       H        0.74670    0.34000    0.81040    1.000
    H4       H        0.64410    0.32620    0.84550    1.000
    H5       H        0.49820    0.33070    0.78050    1.000
    H6       H        0.58130    0.31490    0.71790    1.000
    H7       H        0.29020    0.52540    0.78990    1.000
    H8       H        0.28170    0.48760    0.66750    1.000
    H9       H        0.51210    0.33690    0.62470    1.000
    H10      H        0.02633    0.32210    0.59000    1.000
    H11      H        0.09563    0.35940    0.55490    1.000
    H12      H        0.08003    0.47040    0.66000    1.000
    H13      H        0.97743    0.51930    0.67380    1.000
    H14      H        0.83153    0.44980    0.66930    1.000
    H15      H        0.91463    0.40300    0.68510    1.000
    H16      H        0.62353    0.26450    0.47460    1.000
    H17      H        0.61503    0.17990    0.51240    1.000
    H18      H        0.84543    0.28780    0.66310    1.000
    H19      H        0.35967    0.26790    0.67790    1.000
    H20      H        0.42897    0.19550    0.64060    1.000
    H21      H        0.41337    0.18960    0.52960    1.000
    H22      H        0.31077    0.15450    0.48070    1.000
    H23      H        0.16487    0.21950    0.55020    1.000
    H24      H        0.24797    0.28210    0.59700    1.000
    H25      H        0.95687    0.21010    0.73550    1.000
    H26      H        0.94837    0.33250    0.82010    1.000
    H27      H        0.17877    0.37530    0.71220    1.000
    H28      H        0.30700    0.67790    0.26790    1.000
    H29      H        0.23770    0.64060    0.19550    1.000
    H30      H        0.25330    0.52960    0.18960    1.000
    H31      H        0.35590    0.48070    0.15450    1.000
    H32      H        0.50180    0.55020    0.21950    1.000
    H33      H        0.41870    0.59700    0.28210    1.000
    H34      H        0.70980    0.73550    0.21010    1.000
    H35      H        0.71830    0.82010    0.33250    1.000
    H36      H        0.48790    0.71220    0.37530    1.000
    H37      H        0.97367    0.73210    0.41000    1.000
    H38      H        0.90437    0.80450    0.44510    1.000
    H39      H        0.91997    0.81040    0.34000    1.000
    H40      H        0.02257    0.84550    0.32620    1.000
    H41      H        0.16847    0.78050    0.33070    1.000
    H42      H        0.08537    0.71790    0.31490    1.000
    H43      H        0.37647    0.78990    0.52540    1.000
    H44      H        0.38497    0.66750    0.48760    1.000
    H45      H        0.15457    0.62470    0.33690    1.000
    H46      H        0.64033    0.59000    0.32210    1.000
    H47      H        0.57103    0.55490    0.35940    1.000
    H48      H        0.58663    0.66000    0.47040    1.000
    H49      H        0.68923    0.67380    0.51930    1.000
    H50      H        0.83513    0.66930    0.44980    1.000
    H51      H        0.75203    0.68510    0.40300    1.000
    H52      H        0.04313    0.47460    0.26450    1.000
    H53      H        0.05163    0.51240    0.17990    1.000
    H54      H        0.82123    0.66310    0.28780    1.000
    C1       C        0.69000    0.44070    0.78550    1.000
    C2       C        0.64920    0.51670    0.80540    1.000
    C3       C        0.68700    0.36400    0.84370    1.000
    C4       C        0.72920    0.41820    0.92090    1.000
    C5       C        0.54250    0.35370    0.75940    1.000
    C6       C        0.47080    0.39382    0.73202    1.000
    C7       C        0.40440    0.45220    0.78440    1.000
    C8       C        0.33380    0.48670    0.75690    1.000
    C9       C        0.32900    0.46450    0.68400    1.000
    C10      C        0.39420    0.40720    0.63310    1.000
    C11      C        0.46640    0.37360    0.65824    1.000
    C12      C        0.02333    0.34480    0.55930    1.000
    C13      C        0.98253    0.28870    0.48330    1.000
    C14      C        0.02033    0.47970    0.63600    1.000
    C15      C        0.06253    0.50270    0.58180    1.000
    C16      C        0.87583    0.40570    0.64630    1.000
    C17      C        0.80413    0.33820    0.60618    1.000
    C18      C        0.73773    0.33220    0.54780    1.000
    C19      C        0.66713    0.27020    0.51330    1.000
    C20      C        0.66233    0.21950    0.53550    1.000
    C21      C        0.72753    0.22590    0.59280    1.000
    C22      C        0.79973    0.28464    0.62640    1.000
    C23      C        0.35667    0.21450    0.65520    1.000
    C24      C        0.31587    0.19460    0.71130    1.000
    C25      C        0.35367    0.15630    0.52030    1.000
    C26      C        0.39587    0.07910    0.49730    1.000
    C27      C        0.20917    0.24060    0.59430    1.000
    C28      C        0.13747    0.26798    0.66180    1.000
    C29      C        0.07107    0.21560    0.66780    1.000
    C30      C        0.00047    0.24310    0.72980    1.000
    C31      C        0.99567    0.31600    0.78050    1.000
    C32      C        0.06087    0.36690    0.77410    1.000
    C33      C        0.13307    0.34176    0.71536    1.000
    C34      C        0.31000    0.65520    0.21450    1.000
    C35      C        0.35080    0.71130    0.19460    1.000
    C36      C        0.31300    0.52030    0.15630    1.000
    C37      C        0.27080    0.49730    0.07910    1.000
    C38      C        0.45750    0.59430    0.24060    1.000
    C39      C        0.52920    0.66180    0.26798    1.000
    C40      C        0.59560    0.66780    0.21560    1.000
    C41      C        0.66620    0.72980    0.24310    1.000
    C42      C        0.67100    0.78050    0.31600    1.000
    C43      C        0.60580    0.77410    0.36690    1.000
    C44      C        0.53360    0.71536    0.34176    1.000
    C45      C        0.97667    0.78550    0.44070    1.000
    C46      C        0.01747    0.80540    0.51670    1.000
    C47      C        0.97967    0.84370    0.36400    1.000
    C48      C        0.93747    0.92090    0.41820    1.000
    C49      C        0.12417    0.75940    0.35370    1.000
    C50      C        0.19587    0.73202    0.39382    1.000
    C51      C        0.26227    0.78440    0.45220    1.000
    C52      C        0.33287    0.75690    0.48670    1.000
    C53      C        0.33767    0.68400    0.46450    1.000
    C54      C        0.27247    0.63310    0.40720    1.000
    C55      C        0.20027    0.65824    0.37360    1.000
    C56      C        0.64333    0.55930    0.34480    1.000
    C57      C        0.68413    0.48330    0.28870    1.000
    C58      C        0.64633    0.63600    0.47970    1.000
    C59      C        0.60413    0.58180    0.50270    1.000
    C60      C        0.79083    0.64630    0.40570    1.000
    C61      C        0.86253    0.60618    0.33820    1.000
    C62      C        0.92893    0.54780    0.33220    1.000
    C63      C        0.99953    0.51330    0.27020    1.000
    C64      C        0.00433    0.53550    0.21950    1.000
    C65      C        0.93913    0.59280    0.22590    1.000
    C66      C        0.86693    0.62640    0.28464    1.000
    C67      C        0.50000    0.41460    0.00000    1.000
    C68      C        0.83333    0.58540    0.58540    1.000
    C69      C        0.16667    0.00000    0.41460    1.000
    S1       S        0.38676    0.37922    0.53764    1.000
    S2       S        0.72009    0.15842    0.62078    1.000
    S3       S        0.05343    0.46236    0.84158    1.000
    S4       S        0.61324    0.84158    0.46236    1.000
    S5       S        0.27991    0.53764    0.37922    1.000
    S6       S        0.94657    0.62078    0.15842    1.000
    N1       N        0.62060    0.40440    0.81601    1.000
    N2       N        0.95393    0.41161    0.59560    1.000
    N3       N        0.28727    0.18399    0.58839    1.000
    N4       N        0.37940    0.58839    0.18399    1.000
    N5       N        0.04607    0.81601    0.40440    1.000
    N6       N        0.71273    0.59560    0.41161    1.000
    O1       O        0.48500    0.41440    0.93892    1.000
    O2       O        0.59760    0.55115    0.86674    1.000
    O3       O        0.67200    0.54190    0.76494    1.000
    O4       O        0.68750    0.48326    0.95372    1.000
    O5       O        0.79920    0.39728    0.94786    1.000
    O6       O        0.40420    0.47301    0.85567    1.000
    O7       O        0.46790    0.42250    0.52644    1.000
    O8       O        0.27990    0.39910    0.52638    1.000
    O9       O        0.40850    0.30068    0.49605    1.000
    O10      O        0.08650    0.30700    0.91960    1.000
    O11      O        0.74340    0.77330    0.08760    1.000
    O12      O        0.81833    0.52452    0.58560    1.000
    O13      O        0.93093    0.31559    0.44885    1.000
    O14      O        0.00533    0.22304    0.45810    1.000
    O15      O        0.02083    0.47046    0.51674    1.000
    O16      O        0.13253    0.55058    0.60272    1.000
    O17      O        0.73753    0.38266    0.52699    1.000
    O18      O        0.80123    0.10394    0.57750    1.000
    O19      O        0.61323    0.12728    0.60090    1.000
    O20      O        0.74183    0.19537    0.69932    1.000
    O21      O        0.41983    0.61260    0.69300    1.000
    O22      O        0.07673    0.31430    0.22670    1.000
    O23      O        0.15167    0.06108    0.47548    1.000
    O24      O        0.26427    0.13326    0.68441    1.000
    O25      O        0.33867    0.23506    0.77696    1.000
    O26      O        0.35417    0.04628    0.52954    1.000
    O27      O        0.46587    0.05214    0.44942    1.000
    O28      O        0.07087    0.14433    0.61734    1.000
    O29      O        0.13457    0.47356    0.89606    1.000
    O30      O        0.94657    0.47362    0.87272    1.000
    O31      O        0.07517    0.50395    0.80463    1.000
    O32      O        0.75317    0.08040    0.38740    1.000
    O33      O        0.41007    0.91240    0.68570    1.000
    O34      O        0.51500    0.47548    0.06108    1.000
    O35      O        0.40240    0.68441    0.13326    1.000
    O36      O        0.32800    0.77696    0.23506    1.000
    O37      O        0.31250    0.52954    0.04628    1.000
    O38      O        0.20080    0.44942    0.05214    1.000
    O39      O        0.59580    0.61734    0.14433    1.000
    O40      O        0.53210    0.89606    0.47356    1.000
    O41      O        0.72010    0.87272    0.47362    1.000
    O42      O        0.59150    0.80463    0.50395    1.000
    O43      O        0.91350    0.38740    0.08040    1.000
    O44      O        0.25660    0.68570    0.91240    1.000
    O45      O        0.18167    0.93892    0.41440    1.000
    O46      O        0.06907    0.86674    0.55115    1.000
    O47      O        0.99467    0.76494    0.54190    1.000
    O48      O        0.97917    0.95372    0.48326    1.000
    O49      O        0.86747    0.94786    0.39728    1.000
    O50      O        0.26247    0.85567    0.47301    1.000
    O51      O        0.19877    0.52644    0.42250    1.000
    O52      O        0.38677    0.52638    0.39910    1.000
    O53      O        0.25817    0.49605    0.30068    1.000
    O54      O        0.58017    0.91960    0.30700    1.000
    O55      O        0.92327    0.08760    0.77330    1.000
    O56      O        0.84833    0.58560    0.52452    1.000
    O57      O        0.73573    0.44885    0.31559    1.000
    O58      O        0.66133    0.45810    0.22304    1.000
    O59      O        0.64583    0.51674    0.47046    1.000
    O60      O        0.53413    0.60272    0.55058    1.000
    O61      O        0.92913    0.52699    0.38266    1.000
    O62      O        0.86543    0.57750    0.10394    1.000
    O63      O        0.05343    0.60090    0.12728    1.000
    O64      O        0.92483    0.69932    0.19537    1.000
    O65      O        0.24683    0.69300    0.61260    1.000
    O66      O        0.58993    0.22670    0.31430    1.000
    O67      O        0.50000    0.57706    0.00000    1.000
    O68      O        0.50000    0.35500    0.00000    1.000
    O69      O        0.83333    0.42294    0.42294    1.000
    O70      O        0.83333    0.64500    0.64500    1.000
    O71      O        0.16667    0.00000    0.57706    1.000
    O72      O        0.16667    0.00000    0.35500    1.000
