# CIF file generated by openbabel 3.1.0, see https://openbabel.org
data_I
_chemical_name_common 'image0'
_cell_length_a 18.206
_cell_length_b 18.32
_cell_length_c 14.765
_cell_angle_alpha 90
_cell_angle_beta 92.161
_cell_angle_gamma 90
_space_group_name_H-M_alt 'P 1'
_space_group_name_Hall 'P 1'
loop_
    _symmetry_equiv_pos_as_xyz
    x,y,z
loop_
    _atom_site_label
    _atom_site_type_symbol
    _atom_site_fract_x
    _atom_site_fract_y
    _atom_site_fract_z
    _atom_site_occupancy
    Zn1      Zn       0.32735    0.26152    0.77448    1.000
    C1       C        0.15410    0.30140    0.80240    1.000
    C2       C        0.14980    0.28320    0.89800    1.000
    C3       C        0.17030    0.21520    0.93080    1.000
    H1       H        0.18190    0.17740    0.88970    1.000
    C4       C        0.13110    0.33450    0.96250    1.000
    H2       H        0.11460    0.38130    0.94320    1.000
    C5       C        0.17380    0.20190    0.02210    1.000
    H3       H        0.18770    0.15460    0.04300    1.000
    C6       C        0.13600    0.31910    0.05180    1.000
    H4       H        0.12320    0.35570    0.09390    1.000
    C7       C        0.19930    0.31190    0.67070    1.000
    C8       C        0.13040    0.34040    0.66620    1.000
    C9       C        0.08530    0.37310    0.59100    1.000
    C10      C        0.25550    0.30760    0.60270    1.000
    C11      C        0.41090    0.39720    0.76550    1.000
    C12      C        0.46200    0.33840    0.75540    1.000
    C13      C        0.47570    0.03330    0.67720    1.000
    H5       H        0.45920    0.00740    0.62450    1.000
    C14      C        0.47340    0.10860    0.67460    1.000
    H6       H        0.45400    0.13350    0.62250    1.000
    N1       N        0.15820    0.25350    0.08320    1.000
    N2       N        0.21530    0.28670    0.75570    1.000
    N3       N        0.10080    0.33470    0.75100    1.000
    N4       N        0.43960    0.26810    0.75660    1.000
    O1       O        0.11390    0.38170    0.51630    1.000
    O2       O        0.02000    0.38830    0.60850    1.000
    O3       O        0.24190    0.33410    0.52280    1.000
    H7       H        0.20090    0.35530    0.52160    1.000
    O4       O        0.31600    0.27930    0.62450    1.000
    O5       O        0.34520    0.38070    0.77990    1.000
    O6       O        0.43330    0.46350    0.76010    1.000
    Zn2      Zn       0.82735    0.76152    0.77448    1.000
    C15      C        0.65410    0.80140    0.80240    1.000
    C16      C        0.64980    0.78320    0.89800    1.000
    C17      C        0.67030    0.71520    0.93080    1.000
    H8       H        0.68190    0.67740    0.88970    1.000
    C18      C        0.63110    0.83450    0.96250    1.000
    H9       H        0.61460    0.88130    0.94320    1.000
    C19      C        0.67380    0.70190    0.02210    1.000
    H10      H        0.68770    0.65460    0.04300    1.000
    C20      C        0.63600    0.81910    0.05180    1.000
    H11      H        0.62320    0.85570    0.09390    1.000
    C21      C        0.69930    0.81190    0.67070    1.000
    C22      C        0.63040    0.84040    0.66620    1.000
    C23      C        0.58530    0.87310    0.59100    1.000
    C24      C        0.75550    0.80760    0.60270    1.000
    C25      C        0.91090    0.89720    0.76550    1.000
    C26      C        0.96200    0.83840    0.75540    1.000
    C27      C        0.97570    0.53330    0.67720    1.000
    H12      H        0.95920    0.50740    0.62450    1.000
    C28      C        0.97340    0.60860    0.67460    1.000
    H13      H        0.95400    0.63350    0.62250    1.000
    N5       N        0.65820    0.75350    0.08320    1.000
    N6       N        0.71530    0.78670    0.75570    1.000
    N7       N        0.60080    0.83470    0.75100    1.000
    N8       N        0.93960    0.76810    0.75660    1.000
    O7       O        0.61390    0.88170    0.51630    1.000
    O8       O        0.52000    0.88830    0.60850    1.000
    O9       O        0.74190    0.83410    0.52280    1.000
    H14      H        0.70090    0.85530    0.52160    1.000
    O10      O        0.81600    0.77930    0.62450    1.000
    O11      O        0.84520    0.88070    0.77990    1.000
    O12      O        0.93330    0.96350    0.76010    1.000
    Zn3      Zn       0.67265    0.26152    0.72552    1.000
    C29      C        0.84590    0.30140    0.69760    1.000
    C30      C        0.85020    0.28320    0.60200    1.000
    C31      C        0.82970    0.21520    0.56920    1.000
    H15      H        0.81810    0.17740    0.61030    1.000
    C32      C        0.86890    0.33450    0.53750    1.000
    H16      H        0.88540    0.38130    0.55680    1.000
    C33      C        0.82620    0.20190    0.47790    1.000
    H17      H        0.81230    0.15460    0.45700    1.000
    C34      C        0.86400    0.31910    0.44820    1.000
    H18      H        0.87680    0.35570    0.40610    1.000
    C35      C        0.80070    0.31190    0.82930    1.000
    C36      C        0.86960    0.34040    0.83380    1.000
    C37      C        0.91470    0.37310    0.90900    1.000
    C38      C        0.74450    0.30760    0.89730    1.000
    C39      C        0.58910    0.39720    0.73450    1.000
    C40      C        0.53800    0.33840    0.74460    1.000
    C41      C        0.52430    0.03330    0.82280    1.000
    H19      H        0.54080    0.00740    0.87550    1.000
    C42      C        0.52660    0.10860    0.82540    1.000
    H20      H        0.54600    0.13350    0.87750    1.000
    N9       N        0.84180    0.25350    0.41680    1.000
    N10      N        0.78470    0.28670    0.74430    1.000
    N11      N        0.89920    0.33470    0.74900    1.000
    N12      N        0.56040    0.26810    0.74340    1.000
    O13      O        0.88610    0.38170    0.98370    1.000
    O14      O        0.98000    0.38830    0.89150    1.000
    O15      O        0.75810    0.33410    0.97720    1.000
    H21      H        0.79910    0.35530    0.97840    1.000
    O16      O        0.68400    0.27930    0.87550    1.000
    O17      O        0.65480    0.38070    0.72010    1.000
    O18      O        0.56670    0.46350    0.73990    1.000
    Zn4      Zn       0.17265    0.76152    0.72552    1.000
    C43      C        0.34590    0.80140    0.69760    1.000
    C44      C        0.35020    0.78320    0.60200    1.000
    C45      C        0.32970    0.71520    0.56920    1.000
    H22      H        0.31810    0.67740    0.61030    1.000
    C46      C        0.36890    0.83450    0.53750    1.000
    H23      H        0.38540    0.88130    0.55680    1.000
    C47      C        0.32620    0.70190    0.47790    1.000
    H24      H        0.31230    0.65460    0.45700    1.000
    C48      C        0.36400    0.81910    0.44820    1.000
    H25      H        0.37680    0.85570    0.40610    1.000
    C49      C        0.30070    0.81190    0.82930    1.000
    C50      C        0.36960    0.84040    0.83380    1.000
    C51      C        0.41470    0.87310    0.90900    1.000
    C52      C        0.24450    0.80760    0.89730    1.000
    C53      C        0.08910    0.89720    0.73450    1.000
    C54      C        0.03800    0.83840    0.74460    1.000
    C55      C        0.02430    0.53330    0.82280    1.000
    H26      H        0.04080    0.50740    0.87550    1.000
    C56      C        0.02660    0.60860    0.82540    1.000
    H27      H        0.04600    0.63350    0.87750    1.000
    N13      N        0.34180    0.75350    0.41680    1.000
    N14      N        0.28470    0.78670    0.74430    1.000
    N15      N        0.39920    0.83470    0.74900    1.000
    N16      N        0.06040    0.76810    0.74340    1.000
    O19      O        0.38610    0.88170    0.98370    1.000
    O20      O        0.48000    0.88830    0.89150    1.000
    O21      O        0.25810    0.83410    0.97720    1.000
    H28      H        0.29910    0.85530    0.97840    1.000
    O22      O        0.18400    0.77930    0.87550    1.000
    O23      O        0.15480    0.88070    0.72010    1.000
    O24      O        0.06670    0.96350    0.73990    1.000
    Zn5      Zn       0.67265    0.73848    0.22552    1.000
    C57      C        0.84590    0.69860    0.19760    1.000
    C58      C        0.85020    0.71680    0.10200    1.000
    C59      C        0.82970    0.78480    0.06920    1.000
    H29      H        0.81810    0.82260    0.11030    1.000
    C60      C        0.86890    0.66550    0.03750    1.000
    H30      H        0.88540    0.61870    0.05680    1.000
    C61      C        0.82620    0.79810    0.97790    1.000
    H31      H        0.81230    0.84540    0.95700    1.000
    C62      C        0.86400    0.68090    0.94820    1.000
    H32      H        0.87680    0.64430    0.90610    1.000
    C63      C        0.80070    0.68810    0.32930    1.000
    C64      C        0.86960    0.65960    0.33380    1.000
    C65      C        0.91470    0.62690    0.40900    1.000
    C66      C        0.74450    0.69240    0.39730    1.000
    C67      C        0.58910    0.60280    0.23450    1.000
    C68      C        0.53800    0.66160    0.24460    1.000
    C69      C        0.52430    0.96670    0.32280    1.000
    H33      H        0.54080    0.99260    0.37550    1.000
    C70      C        0.52660    0.89140    0.32540    1.000
    H34      H        0.54600    0.86650    0.37750    1.000
    N17      N        0.84180    0.74650    0.91680    1.000
    N18      N        0.78470    0.71330    0.24430    1.000
    N19      N        0.89920    0.66530    0.24900    1.000
    N20      N        0.56040    0.73190    0.24340    1.000
    O25      O        0.88610    0.61830    0.48370    1.000
    O26      O        0.98000    0.61170    0.39150    1.000
    O27      O        0.75810    0.66590    0.47720    1.000
    H35      H        0.79910    0.64470    0.47840    1.000
    O28      O        0.68400    0.72070    0.37550    1.000
    O29      O        0.65480    0.61930    0.22010    1.000
    O30      O        0.56670    0.53650    0.23990    1.000
    Zn6      Zn       0.17265    0.23848    0.22552    1.000
    C71      C        0.34590    0.19860    0.19760    1.000
    C72      C        0.35020    0.21680    0.10200    1.000
    C73      C        0.32970    0.28480    0.06920    1.000
    H36      H        0.31810    0.32260    0.11030    1.000
    C74      C        0.36890    0.16550    0.03750    1.000
    H37      H        0.38540    0.11870    0.05680    1.000
    C75      C        0.32620    0.29810    0.97790    1.000
    H38      H        0.31230    0.34540    0.95700    1.000
    C76      C        0.36400    0.18090    0.94820    1.000
    H39      H        0.37680    0.14430    0.90610    1.000
    C77      C        0.30070    0.18810    0.32930    1.000
    C78      C        0.36960    0.15960    0.33380    1.000
    C79      C        0.41470    0.12690    0.40900    1.000
    C80      C        0.24450    0.19240    0.39730    1.000
    C81      C        0.08910    0.10280    0.23450    1.000
    C82      C        0.03800    0.16160    0.24460    1.000
    C83      C        0.02430    0.46670    0.32280    1.000
    H40      H        0.04080    0.49260    0.37550    1.000
    C84      C        0.02660    0.39140    0.32540    1.000
    H41      H        0.04600    0.36650    0.37750    1.000
    N21      N        0.34180    0.24650    0.91680    1.000
    N22      N        0.28470    0.21330    0.24430    1.000
    N23      N        0.39920    0.16530    0.24900    1.000
    N24      N        0.06040    0.23190    0.24340    1.000
    O31      O        0.38610    0.11830    0.48370    1.000
    O32      O        0.48000    0.11170    0.39150    1.000
    O33      O        0.25810    0.16590    0.47720    1.000
    H42      H        0.29910    0.14470    0.47840    1.000
    O34      O        0.18400    0.22070    0.37550    1.000
    O35      O        0.15480    0.11930    0.22010    1.000
    O36      O        0.06670    0.03650    0.23990    1.000
    Zn7      Zn       0.32735    0.73848    0.27448    1.000
    C85      C        0.15410    0.69860    0.30240    1.000
    C86      C        0.14980    0.71680    0.39800    1.000
    C87      C        0.17030    0.78480    0.43080    1.000
    H43      H        0.18190    0.82260    0.38970    1.000
    C88      C        0.13110    0.66550    0.46250    1.000
    H44      H        0.11460    0.61870    0.44320    1.000
    C89      C        0.17380    0.79810    0.52210    1.000
    H45      H        0.18770    0.84540    0.54300    1.000
    C90      C        0.13600    0.68090    0.55180    1.000
    H46      H        0.12320    0.64430    0.59390    1.000
    C91      C        0.19930    0.68810    0.17070    1.000
    C92      C        0.13040    0.65960    0.16620    1.000
    C93      C        0.08530    0.62690    0.09100    1.000
    C94      C        0.25550    0.69240    0.10270    1.000
    C95      C        0.41090    0.60280    0.26550    1.000
    C96      C        0.46200    0.66160    0.25540    1.000
    C97      C        0.47570    0.96670    0.17720    1.000
    H47      H        0.45920    0.99260    0.12450    1.000
    C98      C        0.47340    0.89140    0.17460    1.000
    H48      H        0.45400    0.86650    0.12250    1.000
    N25      N        0.15820    0.74650    0.58320    1.000
    N26      N        0.21530    0.71330    0.25570    1.000
    N27      N        0.10080    0.66530    0.25100    1.000
    N28      N        0.43960    0.73190    0.25660    1.000
    O37      O        0.11390    0.61830    0.01630    1.000
    O38      O        0.02000    0.61170    0.10850    1.000
    O39      O        0.24190    0.66590    0.02280    1.000
    H49      H        0.20090    0.64470    0.02160    1.000
    O40      O        0.31600    0.72070    0.12450    1.000
    O41      O        0.34520    0.61930    0.27990    1.000
    O42      O        0.43330    0.53650    0.26010    1.000
    Zn8      Zn       0.82735    0.23848    0.27448    1.000
    C99      C        0.65410    0.19860    0.30240    1.000
    C100     C        0.64980    0.21680    0.39800    1.000
    C101     C        0.67030    0.28480    0.43080    1.000
    H50      H        0.68190    0.32260    0.38970    1.000
    C102     C        0.63110    0.16550    0.46250    1.000
    H51      H        0.61460    0.11870    0.44320    1.000
    C103     C        0.67380    0.29810    0.52210    1.000
    H52      H        0.68770    0.34540    0.54300    1.000
    C104     C        0.63600    0.18090    0.55180    1.000
    H53      H        0.62320    0.14430    0.59390    1.000
    C105     C        0.69930    0.18810    0.17070    1.000
    C106     C        0.63040    0.15960    0.16620    1.000
    C107     C        0.58530    0.12690    0.09100    1.000
    C108     C        0.75550    0.19240    0.10270    1.000
    C109     C        0.91090    0.10280    0.26550    1.000
    C110     C        0.96200    0.16160    0.25540    1.000
    C111     C        0.97570    0.46670    0.17720    1.000
    H54      H        0.95920    0.49260    0.12450    1.000
    C112     C        0.97340    0.39140    0.17460    1.000
    H55      H        0.95400    0.36650    0.12250    1.000
    N29      N        0.65820    0.24650    0.58320    1.000
    N30      N        0.71530    0.21330    0.25570    1.000
    N31      N        0.60080    0.16530    0.25100    1.000
    N32      N        0.93960    0.23190    0.25660    1.000
    O43      O        0.61390    0.11830    0.01630    1.000
    O44      O        0.52000    0.11170    0.10850    1.000
    O45      O        0.74190    0.16590    0.02280    1.000
    H56      H        0.70090    0.14470    0.02160    1.000
    O46      O        0.81600    0.22070    0.12450    1.000
    O47      O        0.84520    0.11930    0.27990    1.000
    O48      O        0.93330    0.03650    0.26010    1.000
    Zn9      Zn       0.00000    0.38173    0.75000    1.000
    Zn10     Zn       0.50000    0.88173    0.75000    1.000
    Zn11     Zn       0.00000    0.61827    0.25000    1.000
    Zn12     Zn       0.50000    0.11827    0.25000    1.000
    C113     C        0.50000    0.22740    0.75000    1.000
    C114     C        0.50000    0.14720    0.75000    1.000
    N33      N        0.50000    0.99410    0.75000    1.000
    C115     C        0.00000    0.72740    0.75000    1.000
    C116     C        0.00000    0.64720    0.75000    1.000
    N34      N        0.00000    0.49410    0.75000    1.000
    C117     C        0.50000    0.77260    0.25000    1.000
    C118     C        0.50000    0.85280    0.25000    1.000
    N35      N        0.50000    0.00590    0.25000    1.000
    C119     C        0.00000    0.27260    0.25000    1.000
    C120     C        0.00000    0.35280    0.25000    1.000
    N36      N        0.00000    0.50590    0.25000    1.000
