# CIF file generated by openbabel 3.1.0, see https://openbabel.org
data_I
_chemical_name_common 'image0'
_cell_length_a 17.9304
_cell_length_b 18.8321
_cell_length_c 20.2922
_cell_angle_alpha 90
_cell_angle_beta 90
_cell_angle_gamma 90
_space_group_name_H-M_alt 'P 1'
_space_group_name_Hall 'P 1'
loop_
    _symmetry_equiv_pos_as_xyz
    x,y,z
loop_
    _atom_site_label
    _atom_site_type_symbol
    _atom_site_fract_x
    _atom_site_fract_y
    _atom_site_fract_z
    _atom_site_occupancy
    Ag1      Ag       0.16479    0.63298    0.15193    1.000
    Si1      Si       0.55284    0.67456    0.12986    1.000
    Si2      Si       0.02887    0.82370    0.42317    1.000
    N1       N        0.29310    0.64050    0.13950    1.000
    N2       N        0.62160    0.79410    0.93520    1.000
    N3       N        0.13210    0.70430    0.24160    1.000
    N4       N        0.89690    0.02810    0.35710    1.000
    C1       C        0.32480    0.70450    0.14260    1.000
    H1       H        0.29280    0.74430    0.14730    1.000
    C2       C        0.40040    0.71720    0.13950    1.000
    H2       H        0.41880    0.76440    0.14270    1.000
    C3       C        0.44970    0.66070    0.13150    1.000
    C4       C        0.41670    0.59470    0.12380    1.000
    H3       H        0.44650    0.55410    0.11510    1.000
    C5       C        0.33820    0.58820    0.12900    1.000
    H4       H        0.31720    0.54210    0.12440    1.000
    C6       C        0.60160    0.58460    0.13260    1.000
    H5       H        0.58570    0.55600    0.09480    1.000
    H6       H        0.58830    0.56010    0.17360    1.000
    H7       H        0.65570    0.59160    0.13100    1.000
    C7       C        0.58050    0.73620    0.19920    1.000
    H8       H        0.62460    0.76380    0.18480    1.000
    H9       H        0.53930    0.77040    0.20630    1.000
    C8       C        0.59650    0.70620    0.25660    1.000
    H10      H        0.58380    0.73890    0.29250    1.000
    H11      H        0.64990    0.69520    0.25840    1.000
    H12      H        0.56770    0.66230    0.26150    1.000
    C9       C        0.57680    0.72090    0.04970    1.000
    C10      C        0.65270    0.72480    0.02930    1.000
    H13      H        0.69140    0.70370    0.05460    1.000
    C11      C        0.66740    0.75940    0.97330    1.000
    H14      H        0.71790    0.75860    0.95940    1.000
    C12      C        0.55010    0.79230    0.95520    1.000
    H15      H        0.51380    0.81700    0.92990    1.000
    C13      C        0.52690    0.75550    0.01170    1.000
    H16      H        0.47550    0.75490    0.02330    1.000
    C14      C        0.07450    0.75190    0.23330    1.000
    H17      H        0.05430    0.75920    0.19050    1.000
    C15      C        0.04600    0.78860    0.28540    1.000
    H18      H        0.00670    0.82130    0.27730    1.000
    C16      C        0.07120    0.78060    0.34890    1.000
    C17      C        0.13370    0.73520    0.35370    1.000
    H19      H        0.15680    0.72790    0.39520    1.000
    C18      C        0.16180    0.70110    0.29810    1.000
    H20      H        0.20600    0.67380    0.30290    1.000
    C19      C        0.10120    0.85010    0.48180    1.000
    H21      H        0.13300    0.80870    0.49250    1.000
    H22      H        0.13310    0.88730    0.46200    1.000
    C20      C        0.06310    0.87960    0.54710    1.000
    H23      H        0.10180    0.89430    0.57840    1.000
    H24      H        0.03230    0.84230    0.56700    1.000
    H25      H        0.03160    0.92050    0.53620    1.000
    C21      C        0.96320    0.75950    0.46390    1.000
    H26      H        0.99360    0.72100    0.48340    1.000
    H27      H        0.93870    0.78470    0.50090    1.000
    C22      C        0.89900    0.72330    0.42060    1.000
    H28      H        0.87020    0.69050    0.44820    1.000
    H29      H        0.92170    0.69700    0.38410    1.000
    H30      H        0.86590    0.76010    0.40310    1.000
    C23      C        0.97760    0.90620    0.39680    1.000
    C24      C        0.90030    0.90470    0.37910    1.000
    H31      H        0.87340    0.86130    0.38010    1.000
    C25      C        0.86660    0.96440    0.36120    1.000
    H32      H        0.81520    0.96090    0.35020    1.000
    C26      C        0.97040    0.03020    0.37110    1.000
    H33      H        0.99620    0.07400    0.36680    1.000
    C27      C        0.01040    0.96970    0.39180    1.000
    H34      H        0.06180    0.97420    0.40250    1.000
    Ag2      Ag       0.33521    0.36702    0.65193    1.000
    Si3      Si       0.94716    0.32544    0.62986    1.000
    Si4      Si       0.47113    0.17630    0.92317    1.000
    N5       N        0.20690    0.35950    0.63950    1.000
    N6       N        0.87840    0.20590    0.43520    1.000
    N7       N        0.36790    0.29570    0.74160    1.000
    N8       N        0.60310    0.97190    0.85710    1.000
    C28      C        0.17520    0.29550    0.64260    1.000
    H35      H        0.20720    0.25570    0.64730    1.000
    C29      C        0.09960    0.28280    0.63950    1.000
    H36      H        0.08120    0.23560    0.64270    1.000
    C30      C        0.05030    0.33930    0.63150    1.000
    C31      C        0.08330    0.40530    0.62380    1.000
    H37      H        0.05350    0.44590    0.61510    1.000
    C32      C        0.16180    0.41180    0.62900    1.000
    H38      H        0.18280    0.45790    0.62440    1.000
    C33      C        0.89840    0.41540    0.63260    1.000
    H39      H        0.91430    0.44400    0.59480    1.000
    H40      H        0.91170    0.43990    0.67360    1.000
    H41      H        0.84430    0.40840    0.63100    1.000
    C34      C        0.91950    0.26380    0.69920    1.000
    H42      H        0.87540    0.23620    0.68480    1.000
    H43      H        0.96070    0.22960    0.70630    1.000
    C35      C        0.90350    0.29380    0.75660    1.000
    H44      H        0.91620    0.26110    0.79250    1.000
    H45      H        0.85010    0.30480    0.75840    1.000
    H46      H        0.93230    0.33770    0.76150    1.000
    C36      C        0.92320    0.27910    0.54970    1.000
    C37      C        0.84730    0.27520    0.52930    1.000
    H47      H        0.80860    0.29630    0.55460    1.000
    C38      C        0.83260    0.24060    0.47330    1.000
    H48      H        0.78210    0.24140    0.45940    1.000
    C39      C        0.94990    0.20770    0.45520    1.000
    H49      H        0.98620    0.18300    0.42990    1.000
    C40      C        0.97310    0.24450    0.51170    1.000
    H50      H        0.02450    0.24510    0.52330    1.000
    C41      C        0.42550    0.24810    0.73330    1.000
    H51      H        0.44570    0.24080    0.69050    1.000
    C42      C        0.45400    0.21140    0.78540    1.000
    H52      H        0.49330    0.17870    0.77730    1.000
    C43      C        0.42880    0.21940    0.84890    1.000
    C44      C        0.36630    0.26480    0.85370    1.000
    H53      H        0.34320    0.27210    0.89520    1.000
    C45      C        0.33820    0.29890    0.79810    1.000
    H54      H        0.29400    0.32620    0.80290    1.000
    C46      C        0.39880    0.14990    0.98180    1.000
    H55      H        0.36700    0.19130    0.99250    1.000
    H56      H        0.36690    0.11270    0.96200    1.000
    C47      C        0.43690    0.12040    0.04710    1.000
    H57      H        0.39820    0.10570    0.07840    1.000
    H58      H        0.46770    0.15770    0.06700    1.000
    H59      H        0.46840    0.07950    0.03620    1.000
    C48      C        0.53680    0.24050    0.96390    1.000
    H60      H        0.50640    0.27900    0.98340    1.000
    H61      H        0.56130    0.21530    0.00090    1.000
    C49      C        0.60100    0.27670    0.92060    1.000
    H62      H        0.62980    0.30950    0.94820    1.000
    H63      H        0.57830    0.30300    0.88410    1.000
    H64      H        0.63410    0.23990    0.90310    1.000
    C50      C        0.52240    0.09380    0.89680    1.000
    C51      C        0.59970    0.09530    0.87910    1.000
    H65      H        0.62660    0.13870    0.88010    1.000
    C52      C        0.63340    0.03560    0.86120    1.000
    H66      H        0.68480    0.03910    0.85020    1.000
    C53      C        0.52960    0.96980    0.87110    1.000
    H67      H        0.50380    0.92600    0.86680    1.000
    C54      C        0.48960    0.03030    0.89180    1.000
    H68      H        0.43820    0.02580    0.90250    1.000
    Ag3      Ag       0.83521    0.13298    0.34807    1.000
    Si5      Si       0.44716    0.17456    0.37014    1.000
    Si6      Si       0.97113    0.32370    0.07683    1.000
    N9       N        0.70690    0.14050    0.36050    1.000
    N10      N        0.37840    0.29410    0.56480    1.000
    N11      N        0.86790    0.20430    0.25840    1.000
    N12      N        0.10310    0.52810    0.14290    1.000
    C55      C        0.67520    0.20450    0.35740    1.000
    H69      H        0.70720    0.24430    0.35270    1.000
    C56      C        0.59960    0.21720    0.36050    1.000
    H70      H        0.58120    0.26440    0.35730    1.000
    C57      C        0.55030    0.16070    0.36850    1.000
    C58      C        0.58330    0.09470    0.37620    1.000
    H71      H        0.55350    0.05410    0.38490    1.000
    C59      C        0.66180    0.08820    0.37100    1.000
    H72      H        0.68280    0.04210    0.37560    1.000
    C60      C        0.39840    0.08460    0.36740    1.000
    H73      H        0.41430    0.05600    0.40520    1.000
    H74      H        0.41170    0.06010    0.32640    1.000
    H75      H        0.34430    0.09160    0.36900    1.000
    C61      C        0.41950    0.23620    0.30080    1.000
    H76      H        0.37540    0.26380    0.31520    1.000
    H77      H        0.46070    0.27040    0.29370    1.000
    C62      C        0.40350    0.20620    0.24340    1.000
    H78      H        0.41620    0.23890    0.20750    1.000
    H79      H        0.35010    0.19520    0.24160    1.000
    H80      H        0.43230    0.16230    0.23850    1.000
    C63      C        0.42320    0.22090    0.45030    1.000
    C64      C        0.34730    0.22480    0.47070    1.000
    H81      H        0.30860    0.20370    0.44540    1.000
    C65      C        0.33260    0.25940    0.52670    1.000
    H82      H        0.28210    0.25860    0.54060    1.000
    C66      C        0.44990    0.29230    0.54480    1.000
    H83      H        0.48620    0.31700    0.57010    1.000
    C67      C        0.47310    0.25550    0.48830    1.000
    H84      H        0.52450    0.25490    0.47670    1.000
    C68      C        0.92550    0.25190    0.26670    1.000
    H85      H        0.94570    0.25920    0.30950    1.000
    C69      C        0.95400    0.28860    0.21460    1.000
    H86      H        0.99330    0.32130    0.22270    1.000
    C70      C        0.92880    0.28060    0.15110    1.000
    C71      C        0.86630    0.23520    0.14630    1.000
    H87      H        0.84320    0.22790    0.10480    1.000
    C72      C        0.83820    0.20110    0.20190    1.000
    H88      H        0.79400    0.17380    0.19710    1.000
    C73      C        0.89880    0.35010    0.01820    1.000
    H89      H        0.86700    0.30870    0.00750    1.000
    H90      H        0.86690    0.38730    0.03800    1.000
    C74      C        0.93690    0.37960    0.95290    1.000
    H91      H        0.89820    0.39430    0.92160    1.000
    H92      H        0.96770    0.34230    0.93300    1.000
    H93      H        0.96840    0.42050    0.96380    1.000
    C75      C        0.03680    0.25950    0.03610    1.000
    H94      H        0.00640    0.22100    0.01660    1.000
    H95      H        0.06130    0.28470    0.99910    1.000
    C76      C        0.10100    0.22330    0.07940    1.000
    H96      H        0.12980    0.19050    0.05180    1.000
    H97      H        0.07830    0.19700    0.11590    1.000
    H98      H        0.13410    0.26010    0.09690    1.000
    C77      C        0.02240    0.40620    0.10320    1.000
    C78      C        0.09970    0.40470    0.12090    1.000
    H99      H        0.12660    0.36130    0.11990    1.000
    C79      C        0.13340    0.46440    0.13880    1.000
    H100     H        0.18480    0.46090    0.14980    1.000
    C80      C        0.02960    0.53020    0.12890    1.000
    H101     H        0.00380    0.57400    0.13320    1.000
    C81      C        0.98960    0.46970    0.10820    1.000
    H102     H        0.93820    0.47420    0.09750    1.000
    Ag4      Ag       0.66479    0.86702    0.84807    1.000
    Si7      Si       0.05284    0.82544    0.87014    1.000
    Si8      Si       0.52887    0.67630    0.57683    1.000
    N13      N        0.79310    0.85950    0.86050    1.000
    N14      N        0.12160    0.70590    0.06480    1.000
    N15      N        0.63210    0.79570    0.75840    1.000
    N16      N        0.39690    0.47190    0.64290    1.000
    C82      C        0.82480    0.79550    0.85740    1.000
    H103     H        0.79280    0.75570    0.85270    1.000
    C83      C        0.90040    0.78280    0.86050    1.000
    H104     H        0.91880    0.73560    0.85730    1.000
    C84      C        0.94970    0.83930    0.86850    1.000
    C85      C        0.91670    0.90530    0.87620    1.000
    H105     H        0.94650    0.94590    0.88490    1.000
    C86      C        0.83820    0.91180    0.87100    1.000
    H106     H        0.81720    0.95790    0.87560    1.000
    C87      C        0.10160    0.91540    0.86740    1.000
    H107     H        0.08570    0.94400    0.90520    1.000
    H108     H        0.08830    0.93990    0.82640    1.000
    H109     H        0.15570    0.90840    0.86900    1.000
    C88      C        0.08050    0.76380    0.80080    1.000
    H110     H        0.12460    0.73620    0.81520    1.000
    H111     H        0.03930    0.72960    0.79370    1.000
    C89      C        0.09650    0.79380    0.74340    1.000
    H112     H        0.08380    0.76110    0.70750    1.000
    H113     H        0.14990    0.80480    0.74160    1.000
    H114     H        0.06770    0.83770    0.73850    1.000
    C90      C        0.07680    0.77910    0.95030    1.000
    C91      C        0.15270    0.77520    0.97070    1.000
    H115     H        0.19140    0.79630    0.94540    1.000
    C92      C        0.16740    0.74060    0.02670    1.000
    H116     H        0.21790    0.74140    0.04060    1.000
    C93      C        0.05010    0.70770    0.04480    1.000
    H117     H        0.01380    0.68300    0.07010    1.000
    C94      C        0.02690    0.74450    0.98830    1.000
    H118     H        0.97550    0.74510    0.97670    1.000
    C95      C        0.57450    0.74810    0.76670    1.000
    H119     H        0.55430    0.74080    0.80950    1.000
    C96      C        0.54600    0.71140    0.71460    1.000
    H120     H        0.50670    0.67870    0.72270    1.000
    C97      C        0.57120    0.71940    0.65110    1.000
    C98      C        0.63370    0.76480    0.64630    1.000
    H121     H        0.65680    0.77210    0.60480    1.000
    C99      C        0.66180    0.79890    0.70190    1.000
    H122     H        0.70600    0.82620    0.69710    1.000
    C100     C        0.60120    0.64990    0.51820    1.000
    H123     H        0.63300    0.69130    0.50750    1.000
    H124     H        0.63310    0.61270    0.53800    1.000
    C101     C        0.56310    0.62040    0.45290    1.000
    H125     H        0.60180    0.60570    0.42160    1.000
    H126     H        0.53230    0.65770    0.43300    1.000
    H127     H        0.53160    0.57950    0.46380    1.000
    C102     C        0.46320    0.74050    0.53610    1.000
    H128     H        0.49360    0.77900    0.51660    1.000
    H129     H        0.43870    0.71530    0.49910    1.000
    C103     C        0.39900    0.77670    0.57940    1.000
    H130     H        0.37020    0.80950    0.55180    1.000
    H131     H        0.42170    0.80300    0.61590    1.000
    H132     H        0.36590    0.73990    0.59690    1.000
    C104     C        0.47760    0.59380    0.60320    1.000
    C105     C        0.40030    0.59530    0.62090    1.000
    H133     H        0.37340    0.63870    0.61990    1.000
    C106     C        0.36660    0.53560    0.63880    1.000
    H134     H        0.31520    0.53910    0.64980    1.000
    C107     C        0.47040    0.46980    0.62890    1.000
    H135     H        0.49620    0.42600    0.63320    1.000
    C108     C        0.51040    0.53030    0.60820    1.000
    H136     H        0.56180    0.52580    0.59750    1.000
    Ag5      Ag       0.65779    0.37394    0.15935    1.000
    Si9      Si       0.95767    0.47640    0.36210    1.000
    Si10     Si       0.35608    0.50131    0.35362    1.000
    N17      N        0.55740    0.40580    0.23220    1.000
    N18      N        0.35820    0.75080    0.35370    1.000
    N19      N        0.75690    0.41320    0.22080    1.000
    N20      N        0.86780    0.58570    0.55420    1.000
    C109     C        0.80330    0.46550    0.20610    1.000
    H137     H        0.79810    0.48760    0.16430    1.000
    C110     C        0.85890    0.49030    0.24760    1.000
    H138     H        0.88620    0.53170    0.23580    1.000
    C111     C        0.87570    0.45480    0.30730    1.000
    C112     C        0.82870    0.40080    0.32120    1.000
    H139     H        0.83550    0.37410    0.36050    1.000
    C113     C        0.77060    0.38370    0.27890    1.000
    H140     H        0.73750    0.34740    0.29290    1.000
    C114     C        0.02010    0.54210    0.31700    1.000
    H141     H        0.06310    0.55380    0.34470    1.000
    H142     H        0.99180    0.58540    0.30730    1.000
    H143     H        0.03740    0.52080    0.27560    1.000
    C115     C        0.00500    0.39580    0.38390    1.000
    H144     H        0.96760    0.36160    0.40080    1.000
    H145     H        0.02690    0.37510    0.34340    1.000
    C116     C        0.07130    0.40420    0.43910    1.000
    H146     H        0.09570    0.35810    0.44590    1.000
    H147     H        0.04970    0.42050    0.48080    1.000
    H148     H        0.10810    0.43880    0.42370    1.000
    C117     C        0.91950    0.52020    0.43760    1.000
    C118     C        0.84280    0.51980    0.45610    1.000
    H149     H        0.80610    0.49710    0.42970    1.000
    C119     C        0.82340    0.55550    0.51690    1.000
    H150     H        0.77230    0.55570    0.52920    1.000
    C120     C        0.93910    0.58740    0.53730    1.000
    H151     H        0.97410    0.60720    0.56730    1.000
    C121     C        0.96440    0.56160    0.47780    1.000
    H152     H        0.01370    0.57250    0.46400    1.000
    C122     C        0.56620    0.43960    0.29170    1.000
    H153     H        0.61470    0.44370    0.31000    1.000
    C123     C        0.50780    0.46710    0.32480    1.000
    H154     H        0.51770    0.49000    0.36560    1.000
    C124     C        0.43580    0.46450    0.30400    1.000
    C125     C        0.42760    0.43230    0.24650    1.000
    H155     H        0.37920    0.43100    0.22760    1.000
    C126     C        0.48500    0.40090    0.21270    1.000
    H156     H        0.47370    0.37460    0.17410    1.000
    C127     C        0.36200    0.46360    0.43930    1.000
    H157     H        0.31080    0.46230    0.45750    1.000
    H158     H        0.37910    0.41370    0.43550    1.000
    C128     C        0.41380    0.50190    0.49200    1.000
    H159     H        0.46290    0.47890    0.49260    1.000
    H160     H        0.39100    0.49830    0.53570    1.000
    H161     H        0.41960    0.55200    0.48010    1.000
    C129     C        0.26300    0.48430    0.30630    1.000
    H162     H        0.23910    0.52180    0.28320    1.000
    C130     C        0.23000    0.41180    0.30690    1.000
    H163     H        0.18290    0.41210    0.28220    1.000
    H164     H        0.22030    0.39720    0.35250    1.000
    H165     H        0.26470    0.37830    0.28630    1.000
    C131     C        0.36090    0.60160    0.35490    1.000
    C132     C        0.32300    0.64000    0.40420    1.000
    H166     H        0.29680    0.61610    0.43840    1.000
    C133     C        0.32500    0.71280    0.40140    1.000
    H167     H        0.30100    0.73830    0.43590    1.000
    C134     C        0.39510    0.71440    0.31060    1.000
    H168     H        0.42230    0.73950    0.27790    1.000
    C135     C        0.39720    0.63930    0.30930    1.000
    H169     H        0.42470    0.61560    0.27590    1.000
    Ag6      Ag       0.84221    0.62606    0.65935    1.000
    Si11     Si       0.54233    0.52360    0.86210    1.000
    Si12     Si       0.14392    0.49869    0.85362    1.000
    N21      N        0.94260    0.59420    0.73220    1.000
    N22      N        0.14180    0.24920    0.85370    1.000
    N23      N        0.74310    0.58680    0.72080    1.000
    N24      N        0.63220    0.41430    0.05420    1.000
    C136     C        0.69670    0.53450    0.70610    1.000
    H170     H        0.70190    0.51240    0.66430    1.000
    C137     C        0.64110    0.50970    0.74760    1.000
    H171     H        0.61380    0.46830    0.73580    1.000
    C138     C        0.62430    0.54520    0.80730    1.000
    C139     C        0.67130    0.59920    0.82120    1.000
    H172     H        0.66450    0.62590    0.86050    1.000
    C140     C        0.72940    0.61630    0.77890    1.000
    H173     H        0.76250    0.65260    0.79290    1.000
    C141     C        0.47990    0.45790    0.81700    1.000
    H174     H        0.43690    0.44620    0.84470    1.000
    H175     H        0.50820    0.41460    0.80730    1.000
    H176     H        0.46260    0.47920    0.77560    1.000
    C142     C        0.49500    0.60420    0.88390    1.000
    H177     H        0.53240    0.63840    0.90080    1.000
    H178     H        0.47310    0.62490    0.84340    1.000
    C143     C        0.42870    0.59580    0.93910    1.000
    H179     H        0.40430    0.64190    0.94590    1.000
    H180     H        0.45030    0.57950    0.98080    1.000
    H181     H        0.39190    0.56120    0.92370    1.000
    C144     C        0.58050    0.47980    0.93760    1.000
    C145     C        0.65720    0.48020    0.95610    1.000
    H182     H        0.69390    0.50290    0.92970    1.000
    C146     C        0.67660    0.44450    0.01690    1.000
    H183     H        0.72770    0.44430    0.02920    1.000
    C147     C        0.56090    0.41260    0.03730    1.000
    H184     H        0.52590    0.39280    0.06730    1.000
    C148     C        0.53560    0.43840    0.97780    1.000
    H185     H        0.48630    0.42750    0.96400    1.000
    C149     C        0.93380    0.56040    0.79170    1.000
    H186     H        0.88530    0.55630    0.81000    1.000
    C150     C        0.99220    0.53290    0.82480    1.000
    H187     H        0.98230    0.51000    0.86560    1.000
    C151     C        0.06420    0.53550    0.80400    1.000
    C152     C        0.07240    0.56770    0.74650    1.000
    H188     H        0.12080    0.56900    0.72760    1.000
    C153     C        0.01500    0.59910    0.71270    1.000
    H189     H        0.02630    0.62540    0.67410    1.000
    C154     C        0.13800    0.53640    0.93930    1.000
    H190     H        0.18920    0.53770    0.95750    1.000
    H191     H        0.12090    0.58630    0.93550    1.000
    C155     C        0.08620    0.49810    0.99200    1.000
    H192     H        0.03710    0.52110    0.99260    1.000
    H193     H        0.10900    0.50170    0.03570    1.000
    H194     H        0.08040    0.44800    0.98010    1.000
    C156     C        0.23700    0.51570    0.80630    1.000
    H195     H        0.26090    0.47820    0.78320    1.000
    C157     C        0.27000    0.58820    0.80690    1.000
    H196     H        0.31710    0.58790    0.78220    1.000
    H197     H        0.27970    0.60280    0.85250    1.000
    H198     H        0.23530    0.62170    0.78630    1.000
    C158     C        0.13910    0.39840    0.85490    1.000
    C159     C        0.17700    0.36000    0.90420    1.000
    H199     H        0.20320    0.38390    0.93840    1.000
    C160     C        0.17500    0.28720    0.90140    1.000
    H200     H        0.19900    0.26170    0.93590    1.000
    C161     C        0.10490    0.28560    0.81060    1.000
    H201     H        0.07770    0.26050    0.77790    1.000
    C162     C        0.10280    0.36070    0.80930    1.000
    H202     H        0.07530    0.38440    0.77590    1.000
    Ag7      Ag       0.34221    0.87394    0.34065    1.000
    Si13     Si       0.04233    0.97640    0.13790    1.000
    Si14     Si       0.64392    0.00131    0.14638    1.000
    N25      N        0.44260    0.90580    0.26780    1.000
    N26      N        0.64180    0.25080    0.14630    1.000
    N27      N        0.24310    0.91320    0.27920    1.000
    N28      N        0.13220    0.08570    0.94580    1.000
    C163     C        0.19670    0.96550    0.29390    1.000
    H203     H        0.20190    0.98760    0.33570    1.000
    C164     C        0.14110    0.99030    0.25240    1.000
    H204     H        0.11380    0.03170    0.26420    1.000
    C165     C        0.12430    0.95480    0.19270    1.000
    C166     C        0.17130    0.90080    0.17880    1.000
    H205     H        0.16450    0.87410    0.13950    1.000
    C167     C        0.22940    0.88370    0.22110    1.000
    H206     H        0.26250    0.84740    0.20710    1.000
    C168     C        0.97990    0.04210    0.18300    1.000
    H207     H        0.93690    0.05380    0.15530    1.000
    H208     H        0.00820    0.08540    0.19270    1.000
    H209     H        0.96260    0.02080    0.22440    1.000
    C169     C        0.99500    0.89580    0.11610    1.000
    H210     H        0.03240    0.86160    0.09920    1.000
    H211     H        0.97310    0.87510    0.15660    1.000
    C170     C        0.92870    0.90420    0.06090    1.000
    H212     H        0.90430    0.85810    0.05410    1.000
    H213     H        0.95030    0.92050    0.01920    1.000
    H214     H        0.89190    0.93880    0.07630    1.000
    C171     C        0.08050    0.02020    0.06240    1.000
    C172     C        0.15720    0.01980    0.04390    1.000
    H215     H        0.19390    0.99710    0.07030    1.000
    C173     C        0.17660    0.05550    0.98310    1.000
    H216     H        0.22770    0.05570    0.97080    1.000
    C174     C        0.06090    0.08740    0.96270    1.000
    H217     H        0.02590    0.10720    0.93270    1.000
    C175     C        0.03560    0.06160    0.02220    1.000
    H218     H        0.98630    0.07250    0.03600    1.000
    C176     C        0.43380    0.93960    0.20830    1.000
    H219     H        0.38530    0.94370    0.19000    1.000
    C177     C        0.49220    0.96710    0.17520    1.000
    H220     H        0.48230    0.99000    0.13440    1.000
    C178     C        0.56420    0.96450    0.19600    1.000
    C179     C        0.57240    0.93230    0.25350    1.000
    H221     H        0.62080    0.93100    0.27240    1.000
    C180     C        0.51500    0.90090    0.28730    1.000
    H222     H        0.52630    0.87460    0.32590    1.000
    C181     C        0.63800    0.96360    0.06070    1.000
    H223     H        0.68920    0.96230    0.04250    1.000
    H224     H        0.62090    0.91370    0.06450    1.000
    C182     C        0.58620    0.00190    0.00800    1.000
    H225     H        0.53710    0.97890    0.00740    1.000
    H226     H        0.60900    0.99830    0.96430    1.000
    H227     H        0.58040    0.05200    0.01990    1.000
    C183     C        0.73700    0.98430    0.19370    1.000
    H228     H        0.76090    0.02180    0.21680    1.000
    C184     C        0.77000    0.91180    0.19310    1.000
    H229     H        0.81710    0.91210    0.21780    1.000
    H230     H        0.77970    0.89720    0.14750    1.000
    H231     H        0.73530    0.87830    0.21370    1.000
    C185     C        0.63910    0.10160    0.14510    1.000
    C186     C        0.67700    0.14000    0.09580    1.000
    H232     H        0.70320    0.11610    0.06160    1.000
    C187     C        0.67500    0.21280    0.09860    1.000
    H233     H        0.69900    0.23830    0.06410    1.000
    C188     C        0.60490    0.21440    0.18940    1.000
    H234     H        0.57770    0.23950    0.22210    1.000
    C189     C        0.60280    0.13930    0.19070    1.000
    H235     H        0.57530    0.11560    0.22410    1.000
    Ag8      Ag       0.15779    0.12606    0.84065    1.000
    Si15     Si       0.45767    0.02360    0.63790    1.000
    Si16     Si       0.85608    0.99869    0.64638    1.000
    N29      N        0.05740    0.09420    0.76780    1.000
    N30      N        0.85820    0.74920    0.64630    1.000
    N31      N        0.25690    0.08680    0.77920    1.000
    N32      N        0.36780    0.91430    0.44580    1.000
    C190     C        0.30330    0.03450    0.79390    1.000
    H236     H        0.29810    0.01240    0.83570    1.000
    C191     C        0.35890    0.00970    0.75240    1.000
    H237     H        0.38620    0.96830    0.76420    1.000
    C192     C        0.37570    0.04520    0.69270    1.000
    C193     C        0.32870    0.09920    0.67880    1.000
    H238     H        0.33550    0.12590    0.63950    1.000
    C194     C        0.27060    0.11630    0.72110    1.000
    H239     H        0.23750    0.15260    0.70710    1.000
    C195     C        0.52010    0.95790    0.68300    1.000
    H240     H        0.56310    0.94620    0.65530    1.000
    H241     H        0.49180    0.91460    0.69270    1.000
    H242     H        0.53740    0.97920    0.72440    1.000
    C196     C        0.50500    0.10420    0.61610    1.000
    H243     H        0.46760    0.13840    0.59920    1.000
    H244     H        0.52690    0.12490    0.65660    1.000
    C197     C        0.57130    0.09580    0.56090    1.000
    H245     H        0.59570    0.14190    0.55410    1.000
    H246     H        0.54970    0.07950    0.51920    1.000
    H247     H        0.60810    0.06120    0.57630    1.000
    C198     C        0.41950    0.97980    0.56240    1.000
    C199     C        0.34280    0.98020    0.54390    1.000
    H248     H        0.30610    0.00290    0.57030    1.000
    C200     C        0.32340    0.94450    0.48310    1.000
    H249     H        0.27230    0.94430    0.47080    1.000
    C201     C        0.43910    0.91260    0.46270    1.000
    H250     H        0.47410    0.89280    0.43270    1.000
    C202     C        0.46440    0.93840    0.52220    1.000
    H251     H        0.51370    0.92750    0.53600    1.000
    C203     C        0.06620    0.06040    0.70830    1.000
    H252     H        0.11470    0.05630    0.69000    1.000
    C204     C        0.00780    0.03290    0.67520    1.000
    H253     H        0.01770    0.01000    0.63440    1.000
    C205     C        0.93580    0.03550    0.69600    1.000
    C206     C        0.92760    0.06770    0.75350    1.000
    H254     H        0.87920    0.06900    0.77240    1.000
    C207     C        0.98500    0.09910    0.78730    1.000
    H255     H        0.97370    0.12540    0.82590    1.000
    C208     C        0.86200    0.03640    0.56070    1.000
    H256     H        0.81080    0.03770    0.54250    1.000
    H257     H        0.87910    0.08630    0.56450    1.000
    C209     C        0.91380    0.99810    0.50800    1.000
    H258     H        0.96290    0.02110    0.50740    1.000
    H259     H        0.89100    0.00170    0.46430    1.000
    H260     H        0.91960    0.94800    0.51990    1.000
    C210     C        0.76300    0.01570    0.69370    1.000
    H261     H        0.73910    0.97820    0.71680    1.000
    C211     C        0.73000    0.08820    0.69310    1.000
    H262     H        0.68290    0.08790    0.71780    1.000
    H263     H        0.72030    0.10280    0.64750    1.000
    H264     H        0.76470    0.12170    0.71370    1.000
    C212     C        0.86090    0.89840    0.64510    1.000
    C213     C        0.82300    0.86000    0.59580    1.000
    H265     H        0.79680    0.88390    0.56160    1.000
    C214     C        0.82500    0.78720    0.59860    1.000
    H266     H        0.80100    0.76170    0.56410    1.000
    C215     C        0.89510    0.78560    0.68940    1.000
    H267     H        0.92230    0.76050    0.72210    1.000
    C216     C        0.89720    0.86070    0.69070    1.000
    H268     H        0.92470    0.88440    0.72410    1.000
