# CIF file generated by openbabel 3.1.0, see https://openbabel.org
data_I
_chemical_name_common 'image0'
_cell_length_a 9.4299
_cell_length_b 22.3272
_cell_length_c 10.0874
_cell_angle_alpha 90
_cell_angle_beta 102.817
_cell_angle_gamma 90
_space_group_name_H-M_alt 'P 1'
_space_group_name_Hall 'P 1'
loop_
    _symmetry_equiv_pos_as_xyz
    x,y,z
loop_
    _atom_site_label
    _atom_site_type_symbol
    _atom_site_fract_x
    _atom_site_fract_y
    _atom_site_fract_z
    _atom_site_occupancy
    Ho1      Ho       0.24816    0.27630    0.05136    1.000
    Ho2      Ho       0.71783    0.43411    0.86187    1.000
    N1       N        0.59940    0.41501    0.62880    1.000
    N2       N        0.53300    0.41311    0.40680    1.000
    H1       H        0.51086    0.42573    0.32514    1.000
    N3       N        0.77600    0.50796    0.64930    1.000
    O1       O        0.06680    0.33687    0.11300    1.000
    O2       O        0.03030    0.28609    0.86980    1.000
    O3       O        0.82760    0.34113    0.79750    1.000
    O4       O        0.84980    0.38077    0.05100    1.000
    O5       O        0.52340    0.36042    0.82460    1.000
    O6       O        0.37990    0.29485    0.69640    1.000
    O7       O        0.60170    0.43635    0.05260    1.000
    O8       O        0.27400    0.29305    0.39540    1.000
    O9       O        0.36590    0.33549    0.23280    1.000
    O10      O        0.46820    0.49163    0.16320    1.000
    O11      O        0.97480    0.44747    0.87040    1.000
    O12      O        0.18020    0.48200    0.00160    1.000
    C1       C        0.45480    0.36851    0.45230    1.000
    C2       C        0.49810    0.37054    0.59280    1.000
    C3       C        0.61900    0.43976    0.51480    1.000
    C4       C        0.72210    0.48906    0.51970    1.000
    C5       C        0.76320    0.51220    0.40680    1.000
    H2       H        0.72622    0.49687    0.32037    1.000
    C6       C        0.86310    0.55980    0.42760    1.000
    H3       H        0.89377    0.57708    0.35483    1.000
    C7       C        0.91440    0.58040    0.55790    1.000
    H4       H        0.97848    0.61259    0.57395    1.000
    C8       C        0.87080    0.55340    0.66380    1.000
    H5       H        0.90938    0.56741    0.75116    1.000
    C9       C        0.35700    0.32910    0.35370    1.000
    C10      C        0.46310    0.33827    0.70920    1.000
    C11      C        0.52030    0.47913    0.06200    1.000
    C12      C        0.04420    0.47967    0.96200    1.000
    C13      C        0.95230    0.34887    0.03040    1.000
    C14      C        0.93420    0.32279    0.88550    1.000
    Ho3      Ho       0.75184    0.77630    0.44864    1.000
    Ho4      Ho       0.28217    0.93411    0.63813    1.000
    N4       N        0.40060    0.91501    0.87120    1.000
    N5       N        0.46700    0.91311    0.09320    1.000
    H6       H        0.48914    0.92573    0.17486    1.000
    N6       N        0.22400    0.00796    0.85070    1.000
    O13      O        0.93320    0.83687    0.38700    1.000
    O14      O        0.96970    0.78609    0.63020    1.000
    O15      O        0.17240    0.84113    0.70250    1.000
    O16      O        0.15020    0.88077    0.44900    1.000
    O17      O        0.47660    0.86042    0.67540    1.000
    O18      O        0.62010    0.79485    0.80360    1.000
    O19      O        0.39830    0.93635    0.44740    1.000
    O20      O        0.72600    0.79305    0.10460    1.000
    O21      O        0.63410    0.83549    0.26720    1.000
    O22      O        0.53180    0.99163    0.33680    1.000
    O23      O        0.02520    0.94747    0.62960    1.000
    O24      O        0.81980    0.98200    0.49840    1.000
    C15      C        0.54520    0.86851    0.04770    1.000
    C16      C        0.50190    0.87054    0.90720    1.000
    C17      C        0.38100    0.93976    0.98520    1.000
    C18      C        0.27790    0.98906    0.98030    1.000
    C19      C        0.23680    0.01220    0.09320    1.000
    H7       H        0.27378    0.99687    0.17963    1.000
    C20      C        0.13690    0.05980    0.07240    1.000
    H8       H        0.10623    0.07708    0.14517    1.000
    C21      C        0.08560    0.08040    0.94210    1.000
    H9       H        0.02152    0.11259    0.92605    1.000
    C22      C        0.12920    0.05340    0.83620    1.000
    H10      H        0.09062    0.06741    0.74884    1.000
    C23      C        0.64300    0.82910    0.14630    1.000
    C24      C        0.53690    0.83827    0.79080    1.000
    C25      C        0.47970    0.97913    0.43800    1.000
    C26      C        0.95580    0.97967    0.53800    1.000
    C27      C        0.04770    0.84887    0.46960    1.000
    C28      C        0.06580    0.82279    0.61450    1.000
    Ho5      Ho       0.75184    0.72370    0.94864    1.000
    Ho6      Ho       0.28217    0.56589    0.13813    1.000
    N7       N        0.40060    0.58499    0.37120    1.000
    N8       N        0.46700    0.58689    0.59320    1.000
    H11      H        0.48914    0.57427    0.67486    1.000
    N9       N        0.22400    0.49204    0.35070    1.000
    O25      O        0.93320    0.66313    0.88700    1.000
    O26      O        0.96970    0.71391    0.13020    1.000
    O27      O        0.17240    0.65887    0.20250    1.000
    O28      O        0.15020    0.61923    0.94900    1.000
    O29      O        0.47660    0.63958    0.17540    1.000
    O30      O        0.62010    0.70515    0.30360    1.000
    O31      O        0.39830    0.56365    0.94740    1.000
    O32      O        0.72600    0.70695    0.60460    1.000
    O33      O        0.63410    0.66451    0.76720    1.000
    O34      O        0.53180    0.50837    0.83680    1.000
    O35      O        0.02520    0.55253    0.12960    1.000
    O36      O        0.81980    0.51800    0.99840    1.000
    C29      C        0.54520    0.63149    0.54770    1.000
    C30      C        0.50190    0.62946    0.40720    1.000
    C31      C        0.38100    0.56024    0.48520    1.000
    C32      C        0.27790    0.51094    0.48030    1.000
    C33      C        0.23680    0.48780    0.59320    1.000
    H12      H        0.27378    0.50313    0.67963    1.000
    C34      C        0.13690    0.44020    0.57240    1.000
    H13      H        0.10623    0.42292    0.64517    1.000
    C35      C        0.08560    0.41960    0.44210    1.000
    H14      H        0.02152    0.38741    0.42605    1.000
    C36      C        0.12920    0.44660    0.33620    1.000
    H15      H        0.09062    0.43259    0.24884    1.000
    C37      C        0.64300    0.67090    0.64630    1.000
    C38      C        0.53690    0.66173    0.29080    1.000
    C39      C        0.47970    0.52087    0.93800    1.000
    C40      C        0.95580    0.52033    0.03800    1.000
    C41      C        0.04770    0.65113    0.96960    1.000
    C42      C        0.06580    0.67721    0.11450    1.000
    Ho7      Ho       0.24816    0.22370    0.55136    1.000
    Ho8      Ho       0.71783    0.06589    0.36187    1.000
    N10      N        0.59940    0.08499    0.12880    1.000
    N11      N        0.53300    0.08689    0.90680    1.000
    H16      H        0.51086    0.07427    0.82514    1.000
    N12      N        0.77600    0.99204    0.14930    1.000
    O37      O        0.06680    0.16313    0.61300    1.000
    O38      O        0.03030    0.21391    0.36980    1.000
    O39      O        0.82760    0.15887    0.29750    1.000
    O40      O        0.84980    0.11923    0.55100    1.000
    O41      O        0.52340    0.13958    0.32460    1.000
    O42      O        0.37990    0.20515    0.19640    1.000
    O43      O        0.60170    0.06365    0.55260    1.000
    O44      O        0.27400    0.20695    0.89540    1.000
    O45      O        0.36590    0.16451    0.73280    1.000
    O46      O        0.46820    0.00837    0.66320    1.000
    O47      O        0.97480    0.05253    0.37040    1.000
    O48      O        0.18020    0.01800    0.50160    1.000
    C43      C        0.45480    0.13149    0.95230    1.000
    C44      C        0.49810    0.12946    0.09280    1.000
    C45      C        0.61900    0.06024    0.01480    1.000
    C46      C        0.72210    0.01094    0.01970    1.000
    C47      C        0.76320    0.98780    0.90680    1.000
    H17      H        0.72622    0.00313    0.82037    1.000
    C48      C        0.86310    0.94020    0.92760    1.000
    H18      H        0.89377    0.92292    0.85483    1.000
    C49      C        0.91440    0.91960    0.05790    1.000
    H19      H        0.97848    0.88741    0.07395    1.000
    C50      C        0.87080    0.94660    0.16380    1.000
    H20      H        0.90938    0.93259    0.25116    1.000
    C51      C        0.35700    0.17090    0.85370    1.000
    C52      C        0.46310    0.16173    0.20920    1.000
    C53      C        0.52030    0.02087    0.56200    1.000
    C54      C        0.04420    0.02033    0.46200    1.000
    C55      C        0.95230    0.15113    0.53040    1.000
    C56      C        0.93420    0.17721    0.38550    1.000
