# CIF file generated by openbabel 3.1.0, see https://openbabel.org
data_I
_chemical_name_common 'image0'
_cell_length_a 6.099
_cell_length_b 10.501
_cell_length_c 13.688
_cell_angle_alpha 72.607
_cell_angle_beta 88.789
_cell_angle_gamma 88.98
_space_group_name_H-M_alt 'P 1'
_space_group_name_Hall 'P 1'
loop_
    _symmetry_equiv_pos_as_xyz
    x,y,z
loop_
    _atom_site_label
    _atom_site_type_symbol
    _atom_site_fract_x
    _atom_site_fract_y
    _atom_site_fract_z
    _atom_site_occupancy
    Ce1      Ce       0.74860    0.33898    0.29069    1.000
    C1       C        0.60070    0.13130    0.52690    1.000
    C2       C        0.10890    0.05170    0.41160    1.000
    H1       H        0.18940    0.08530    0.35110    1.000
    O1       O        0.54580    0.22840    0.45290    1.000
    O2       O        0.49740    0.08940    0.60970    1.000
    O3       O        0.93760    0.30240    0.14160    1.000
    O4       O        0.00150    0.32110    0.97780    1.000
    N1       N        0.56560    0.44370    0.10050    1.000
    N2       N        0.92140    0.11190    0.42490    1.000
    C3       C        0.81330    0.06030    0.51360    1.000
    C4       C        0.68260    0.42620    0.02230    1.000
    C5       C        0.89080    0.34300    0.04810    1.000
    C6       C        0.38260    0.51770    0.07830    1.000
    H2       H        0.29710    0.53190    0.13120    1.000
    O5       O        0.43900    0.47740    0.32510    1.000
    O6       O        0.15540    0.35890    0.30110    1.000
    C7       C        0.24750    0.43260    0.34330    1.000
    C8       C        0.11660    0.47100    0.42570    1.000
    N3       N        0.91020    0.42730    0.44130    1.000
    C9       C        0.79460    0.45580    0.51560    1.000
    H3       H        0.65100    0.42620    0.52860    1.000
    Ce2      Ce       0.25140    0.66102    0.70931    1.000
    C10      C        0.39930    0.86870    0.47310    1.000
    C11      C        0.89110    0.94830    0.58840    1.000
    H4       H        0.81060    0.91470    0.64890    1.000
    O7       O        0.45420    0.77160    0.54710    1.000
    O8       O        0.50260    0.91060    0.39030    1.000
    O9       O        0.06240    0.69760    0.85840    1.000
    O10      O        0.99850    0.67890    0.02220    1.000
    N4       N        0.43440    0.55630    0.89950    1.000
    N5       N        0.07860    0.88810    0.57510    1.000
    C12      C        0.18670    0.93970    0.48640    1.000
    C13      C        0.31740    0.57380    0.97770    1.000
    C14      C        0.10920    0.65700    0.95190    1.000
    C15      C        0.61740    0.48230    0.92170    1.000
    H5       H        0.70290    0.46810    0.86880    1.000
    O11      O        0.56100    0.52260    0.67490    1.000
    O12      O        0.84460    0.64110    0.69890    1.000
    C16      C        0.75250    0.56740    0.65670    1.000
    C17      C        0.88340    0.52900    0.57430    1.000
    N6       N        0.08980    0.57270    0.55870    1.000
    C18      C        0.20540    0.54420    0.48440    1.000
    H6       H        0.34900    0.57380    0.47140    1.000
