# CIF file generated by openbabel 3.1.0, see https://openbabel.org
data_I
_chemical_name_common 'image0'
_cell_length_a 18.28
_cell_length_b 11.9163
_cell_length_c 11.0923
_cell_angle_alpha 90
_cell_angle_beta 94.04
_cell_angle_gamma 90
_space_group_name_H-M_alt 'P 1'
_space_group_name_Hall 'P 1'
loop_
    _symmetry_equiv_pos_as_xyz
    x,y,z
loop_
    _atom_site_label
    _atom_site_type_symbol
    _atom_site_fract_x
    _atom_site_fract_y
    _atom_site_fract_z
    _atom_site_occupancy
    Co1      Co       0.57704    0.43290    0.99566    1.000
    C1       C        0.63000    0.26000    0.16760    1.000
    C2       C        0.69560    0.19420    0.22140    1.000
    C3       C        0.75080    0.16180    0.15000    1.000
    H1       H        0.74850    0.17650    0.06750    1.000
    C4       C        0.81060    0.10530    0.20860    1.000
    C5       C        0.81300    0.08130    0.33080    1.000
    C6       C        0.75720    0.11400    0.40350    1.000
    H2       H        0.75940    0.09880    0.48600    1.000
    C7       C        0.69920    0.16960    0.34600    1.000
    H3       H        0.66060    0.19200    0.39090    1.000
    N1       N        0.87299    0.06220    0.16520    1.000
    N2       N        0.91108    0.01600    0.25890    1.000
    N3       N        0.87712    0.02580    0.36020    1.000
    O1       O        0.47979    0.41440    0.06670    1.000
    O2       O        0.63150    0.29410    0.05880    1.000
    O3       O        0.57891    0.27600    0.23530    1.000
    H4       H        0.45670    0.35500    0.04700    1.000
    Co2      Co       0.07704    0.93290    0.99566    1.000
    C8       C        0.13000    0.76000    0.16760    1.000
    C9       C        0.19560    0.69420    0.22140    1.000
    C10      C        0.25080    0.66180    0.15000    1.000
    H5       H        0.24850    0.67650    0.06750    1.000
    C11      C        0.31060    0.60530    0.20860    1.000
    C12      C        0.31300    0.58130    0.33080    1.000
    C13      C        0.25720    0.61400    0.40350    1.000
    H6       H        0.25940    0.59880    0.48600    1.000
    C14      C        0.19920    0.66960    0.34600    1.000
    H7       H        0.16060    0.69200    0.39090    1.000
    N4       N        0.37299    0.56220    0.16520    1.000
    N5       N        0.41108    0.51600    0.25890    1.000
    N6       N        0.37712    0.52580    0.36020    1.000
    O4       O        0.97979    0.91440    0.06670    1.000
    O5       O        0.13150    0.79410    0.05880    1.000
    O6       O        0.07891    0.77600    0.23530    1.000
    H8       H        0.95670    0.85500    0.04700    1.000
    Co3      Co       0.42296    0.43290    0.50434    1.000
    C15      C        0.37000    0.26000    0.33240    1.000
    C16      C        0.30440    0.19420    0.27860    1.000
    C17      C        0.24920    0.16180    0.35000    1.000
    H9       H        0.25150    0.17650    0.43250    1.000
    C18      C        0.18940    0.10530    0.29140    1.000
    C19      C        0.18700    0.08130    0.16920    1.000
    C20      C        0.24280    0.11400    0.09650    1.000
    H10      H        0.24060    0.09880    0.01400    1.000
    C21      C        0.30080    0.16960    0.15400    1.000
    H11      H        0.33940    0.19200    0.10910    1.000
    N7       N        0.12701    0.06220    0.33480    1.000
    N8       N        0.08892    0.01600    0.24110    1.000
    N9       N        0.12288    0.02580    0.13980    1.000
    O7       O        0.52021    0.41440    0.43330    1.000
    O8       O        0.36850    0.29410    0.44120    1.000
    O9       O        0.42109    0.27600    0.26470    1.000
    H12      H        0.54330    0.35500    0.45300    1.000
    Co4      Co       0.92296    0.93290    0.50434    1.000
    C22      C        0.87000    0.76000    0.33240    1.000
    C23      C        0.80440    0.69420    0.27860    1.000
    C24      C        0.74920    0.66180    0.35000    1.000
    H13      H        0.75150    0.67650    0.43250    1.000
    C25      C        0.68940    0.60530    0.29140    1.000
    C26      C        0.68700    0.58130    0.16920    1.000
    C27      C        0.74280    0.61400    0.09650    1.000
    H14      H        0.74060    0.59880    0.01400    1.000
    C28      C        0.80080    0.66960    0.15400    1.000
    H15      H        0.83940    0.69200    0.10910    1.000
    N10      N        0.62701    0.56220    0.33480    1.000
    N11      N        0.58892    0.51600    0.24110    1.000
    N12      N        0.62288    0.52580    0.13980    1.000
    O10      O        0.02021    0.91440    0.43330    1.000
    O11      O        0.86850    0.79410    0.44120    1.000
    O12      O        0.92109    0.77600    0.26470    1.000
    H16      H        0.04330    0.85500    0.45300    1.000
    Co5      Co       0.42296    0.56710    0.00434    1.000
    C29      C        0.37000    0.74000    0.83240    1.000
    C30      C        0.30440    0.80580    0.77860    1.000
    C31      C        0.24920    0.83820    0.85000    1.000
    H17      H        0.25150    0.82350    0.93250    1.000
    C32      C        0.18940    0.89470    0.79140    1.000
    C33      C        0.18700    0.91870    0.66920    1.000
    C34      C        0.24280    0.88600    0.59650    1.000
    H18      H        0.24060    0.90120    0.51400    1.000
    C35      C        0.30080    0.83040    0.65400    1.000
    H19      H        0.33940    0.80800    0.60910    1.000
    N13      N        0.12701    0.93780    0.83480    1.000
    N14      N        0.08892    0.98400    0.74110    1.000
    N15      N        0.12288    0.97420    0.63980    1.000
    O13      O        0.52021    0.58560    0.93330    1.000
    O14      O        0.36850    0.70590    0.94120    1.000
    O15      O        0.42109    0.72400    0.76470    1.000
    H20      H        0.54330    0.64500    0.95300    1.000
    Co6      Co       0.92296    0.06710    0.00434    1.000
    C36      C        0.87000    0.24000    0.83240    1.000
    C37      C        0.80440    0.30580    0.77860    1.000
    C38      C        0.74920    0.33820    0.85000    1.000
    H21      H        0.75150    0.32350    0.93250    1.000
    C39      C        0.68940    0.39470    0.79140    1.000
    C40      C        0.68700    0.41870    0.66920    1.000
    C41      C        0.74280    0.38600    0.59650    1.000
    H22      H        0.74060    0.40120    0.51400    1.000
    C42      C        0.80080    0.33040    0.65400    1.000
    H23      H        0.83940    0.30800    0.60910    1.000
    N16      N        0.62701    0.43780    0.83480    1.000
    N17      N        0.58892    0.48400    0.74110    1.000
    N18      N        0.62288    0.47420    0.63980    1.000
    O16      O        0.02021    0.08560    0.93330    1.000
    O17      O        0.86850    0.20590    0.94120    1.000
    O18      O        0.92109    0.22400    0.76470    1.000
    H24      H        0.04330    0.14500    0.95300    1.000
    Co7      Co       0.57704    0.56710    0.49566    1.000
    C43      C        0.63000    0.74000    0.66760    1.000
    C44      C        0.69560    0.80580    0.72140    1.000
    C45      C        0.75080    0.83820    0.65000    1.000
    H25      H        0.74850    0.82350    0.56750    1.000
    C46      C        0.81060    0.89470    0.70860    1.000
    C47      C        0.81300    0.91870    0.83080    1.000
    C48      C        0.75720    0.88600    0.90350    1.000
    H26      H        0.75940    0.90120    0.98600    1.000
    C49      C        0.69920    0.83040    0.84600    1.000
    H27      H        0.66060    0.80800    0.89090    1.000
    N19      N        0.87299    0.93780    0.66520    1.000
    N20      N        0.91108    0.98400    0.75890    1.000
    N21      N        0.87712    0.97420    0.86020    1.000
    O19      O        0.47979    0.58560    0.56670    1.000
    O20      O        0.63150    0.70590    0.55880    1.000
    O21      O        0.57891    0.72400    0.73530    1.000
    H28      H        0.45670    0.64500    0.54700    1.000
    Co8      Co       0.07704    0.06710    0.49566    1.000
    C50      C        0.13000    0.24000    0.66760    1.000
    C51      C        0.19560    0.30580    0.72140    1.000
    C52      C        0.25080    0.33820    0.65000    1.000
    H29      H        0.24850    0.32350    0.56750    1.000
    C53      C        0.31060    0.39470    0.70860    1.000
    C54      C        0.31300    0.41870    0.83080    1.000
    C55      C        0.25720    0.38600    0.90350    1.000
    H30      H        0.25940    0.40120    0.98600    1.000
    C56      C        0.19920    0.33040    0.84600    1.000
    H31      H        0.16060    0.30800    0.89090    1.000
    N22      N        0.37299    0.43780    0.66520    1.000
    N23      N        0.41108    0.48400    0.75890    1.000
    N24      N        0.37712    0.47420    0.86020    1.000
    O22      O        0.97979    0.08560    0.56670    1.000
    O23      O        0.13150    0.20590    0.55880    1.000
    O24      O        0.07891    0.22400    0.73530    1.000
    H32      H        0.95670    0.14500    0.54700    1.000
    Co9      Co       0.50000    0.39937    0.25000    1.000
    Co10     Co       0.00000    0.89937    0.25000    1.000
    Co11     Co       0.50000    0.60063    0.75000    1.000
    Co12     Co       0.00000    0.10063    0.75000    1.000
