# CIF file generated by openbabel 3.1.0, see https://openbabel.org
data_I
_chemical_name_common 'image0'
_cell_length_a 24.681
_cell_length_b 24.681
_cell_length_c 10.819
_cell_angle_alpha 90
_cell_angle_beta 90
_cell_angle_gamma 90
_space_group_name_H-M_alt 'P 1'
_space_group_name_Hall 'P 1'
loop_
    _symmetry_equiv_pos_as_xyz
    x,y,z
loop_
    _atom_site_label
    _atom_site_type_symbol
    _atom_site_fract_x
    _atom_site_fract_y
    _atom_site_fract_z
    _atom_site_occupancy
    In1      In       0.38016    0.78980    0.35556    1.000
    O1       O        0.59910    0.86040    0.32170    1.000
    O2       O        0.62740    0.86330    0.12670    1.000
    O3       O        0.19140    0.72820    0.11140    1.000
    O4       O        0.20090    0.72890    0.90800    1.000
    N1       N        0.44800    0.80770    0.21750    1.000
    N2       N        0.34840    0.77650    0.16190    1.000
    C1       C        0.49760    0.82350    0.25040    1.000
    H1       H        0.50540    0.82590    0.33430    1.000
    C2       C        0.53790    0.83660    0.16780    1.000
    C3       C        0.52540    0.83220    0.04440    1.000
    H2       H        0.55090    0.83880    0.98300    1.000
    C4       C        0.47130    0.81690    0.01580    1.000
    H3       H        0.46120    0.81470    0.93320    1.000
    C5       C        0.43590    0.80590    0.09860    1.000
    C6       C        0.37970    0.78700    0.06380    1.000
    C7       C        0.35970    0.77980    0.95080    1.000
    H4       H        0.38320    0.78630    0.88520    1.000
    C8       C        0.31040    0.76470    0.92210    1.000
    H5       H        0.29870    0.76140    0.84070    1.000
    C9       C        0.27600    0.75380    0.02470    1.000
    C10      C        0.29850    0.75940    0.14340    1.000
    H6       H        0.27730    0.75060    0.21160    1.000
    C11      C        0.59160    0.85320    0.20780    1.000
    C12      C        0.21840    0.73520    0.01630    1.000
    In2      In       0.88016    0.28980    0.85556    1.000
    O5       O        0.09910    0.36040    0.82170    1.000
    O6       O        0.12740    0.36330    0.62670    1.000
    O7       O        0.69140    0.22820    0.61140    1.000
    O8       O        0.70090    0.22890    0.40800    1.000
    N3       N        0.94800    0.30770    0.71750    1.000
    N4       N        0.84840    0.27650    0.66190    1.000
    C13      C        0.99760    0.32350    0.75040    1.000
    H7       H        0.00540    0.32590    0.83430    1.000
    C14      C        0.03790    0.33660    0.66780    1.000
    C15      C        0.02540    0.33220    0.54440    1.000
    H8       H        0.05090    0.33880    0.48300    1.000
    C16      C        0.97130    0.31690    0.51580    1.000
    H9       H        0.96120    0.31470    0.43320    1.000
    C17      C        0.93590    0.30590    0.59860    1.000
    C18      C        0.87970    0.28700    0.56380    1.000
    C19      C        0.85970    0.27980    0.45080    1.000
    H10      H        0.88320    0.28630    0.38520    1.000
    C20      C        0.81040    0.26470    0.42210    1.000
    H11      H        0.79870    0.26140    0.34070    1.000
    C21      C        0.77600    0.25380    0.52470    1.000
    C22      C        0.79850    0.25940    0.64340    1.000
    H12      H        0.77730    0.25060    0.71160    1.000
    C23      C        0.09160    0.35320    0.70780    1.000
    C24      C        0.71840    0.23520    0.51630    1.000
    In3      In       0.61984    0.21020    0.35556    1.000
    O9       O        0.40090    0.13960    0.32170    1.000
    O10      O        0.37260    0.13670    0.12670    1.000
    O11      O        0.80860    0.27180    0.11140    1.000
    O12      O        0.79910    0.27110    0.90800    1.000
    N5       N        0.55200    0.19230    0.21750    1.000
    N6       N        0.65160    0.22350    0.16190    1.000
    C25      C        0.50240    0.17650    0.25040    1.000
    H13      H        0.49460    0.17410    0.33430    1.000
    C26      C        0.46210    0.16340    0.16780    1.000
    C27      C        0.47460    0.16780    0.04440    1.000
    H14      H        0.44910    0.16120    0.98300    1.000
    C28      C        0.52870    0.18310    0.01580    1.000
    H15      H        0.53880    0.18530    0.93320    1.000
    C29      C        0.56410    0.19410    0.09860    1.000
    C30      C        0.62030    0.21300    0.06380    1.000
    C31      C        0.64030    0.22020    0.95080    1.000
    H16      H        0.61680    0.21370    0.88520    1.000
    C32      C        0.68960    0.23530    0.92210    1.000
    H17      H        0.70130    0.23860    0.84070    1.000
    C33      C        0.72400    0.24620    0.02470    1.000
    C34      C        0.70150    0.24060    0.14340    1.000
    H18      H        0.72270    0.24940    0.21160    1.000
    C35      C        0.40840    0.14680    0.20780    1.000
    C36      C        0.78160    0.26480    0.01630    1.000
    In4      In       0.11984    0.71020    0.85556    1.000
    O13      O        0.90090    0.63960    0.82170    1.000
    O14      O        0.87260    0.63670    0.62670    1.000
    O15      O        0.30860    0.77180    0.61140    1.000
    O16      O        0.29910    0.77110    0.40800    1.000
    N7       N        0.05200    0.69230    0.71750    1.000
    N8       N        0.15160    0.72350    0.66190    1.000
    C37      C        0.00240    0.67650    0.75040    1.000
    H19      H        0.99460    0.67410    0.83430    1.000
    C38      C        0.96210    0.66340    0.66780    1.000
    C39      C        0.97460    0.66780    0.54440    1.000
    H20      H        0.94910    0.66120    0.48300    1.000
    C40      C        0.02870    0.68310    0.51580    1.000
    H21      H        0.03880    0.68530    0.43320    1.000
    C41      C        0.06410    0.69410    0.59860    1.000
    C42      C        0.12030    0.71300    0.56380    1.000
    C43      C        0.14030    0.72020    0.45080    1.000
    H22      H        0.11680    0.71370    0.38520    1.000
    C44      C        0.18960    0.73530    0.42210    1.000
    H23      H        0.20130    0.73860    0.34070    1.000
    C45      C        0.22400    0.74620    0.52470    1.000
    C46      C        0.20150    0.74060    0.64340    1.000
    H24      H        0.22270    0.74940    0.71160    1.000
    C47      C        0.90840    0.64680    0.70780    1.000
    C48      C        0.28160    0.76480    0.51630    1.000
    In5      In       0.78980    0.61984    0.64444    1.000
    O17      O        0.86040    0.40090    0.67830    1.000
    O18      O        0.86330    0.37260    0.87330    1.000
    O19      O        0.72820    0.80860    0.88860    1.000
    O20      O        0.72890    0.79910    0.09200    1.000
    N9       N        0.80770    0.55200    0.78250    1.000
    N10      N        0.77650    0.65160    0.83810    1.000
    C49      C        0.82350    0.50240    0.74960    1.000
    H25      H        0.82590    0.49460    0.66570    1.000
    C50      C        0.83660    0.46210    0.83220    1.000
    C51      C        0.83220    0.47460    0.95560    1.000
    H26      H        0.83880    0.44910    0.01700    1.000
    C52      C        0.81690    0.52870    0.98420    1.000
    H27      H        0.81470    0.53880    0.06680    1.000
    C53      C        0.80590    0.56410    0.90140    1.000
    C54      C        0.78700    0.62030    0.93620    1.000
    C55      C        0.77980    0.64030    0.04920    1.000
    H28      H        0.78630    0.61680    0.11480    1.000
    C56      C        0.76470    0.68960    0.07790    1.000
    H29      H        0.76140    0.70130    0.15930    1.000
    C57      C        0.75380    0.72400    0.97530    1.000
    C58      C        0.75940    0.70150    0.85660    1.000
    H30      H        0.75060    0.72270    0.78840    1.000
    C59      C        0.85320    0.40840    0.79220    1.000
    C60      C        0.73520    0.78160    0.98370    1.000
    In6      In       0.28980    0.11984    0.14444    1.000
    O21      O        0.36040    0.90090    0.17830    1.000
    O22      O        0.36330    0.87260    0.37330    1.000
    O23      O        0.22820    0.30860    0.38860    1.000
    O24      O        0.22890    0.29910    0.59200    1.000
    N11      N        0.30770    0.05200    0.28250    1.000
    N12      N        0.27650    0.15160    0.33810    1.000
    C61      C        0.32350    0.00240    0.24960    1.000
    H31      H        0.32590    0.99460    0.16570    1.000
    C62      C        0.33660    0.96210    0.33220    1.000
    C63      C        0.33220    0.97460    0.45560    1.000
    H32      H        0.33880    0.94910    0.51700    1.000
    C64      C        0.31690    0.02870    0.48420    1.000
    H33      H        0.31470    0.03880    0.56680    1.000
    C65      C        0.30590    0.06410    0.40140    1.000
    C66      C        0.28700    0.12030    0.43620    1.000
    C67      C        0.27980    0.14030    0.54920    1.000
    H34      H        0.28630    0.11680    0.61480    1.000
    C68      C        0.26470    0.18960    0.57790    1.000
    H35      H        0.26140    0.20130    0.65930    1.000
    C69      C        0.25380    0.22400    0.47530    1.000
    C70      C        0.25940    0.20150    0.35660    1.000
    H36      H        0.25060    0.22270    0.28840    1.000
    C71      C        0.35320    0.90840    0.29220    1.000
    C72      C        0.23520    0.28160    0.48370    1.000
    In7      In       0.21020    0.38016    0.64444    1.000
    O25      O        0.13960    0.59910    0.67830    1.000
    O26      O        0.13670    0.62740    0.87330    1.000
    O27      O        0.27180    0.19140    0.88860    1.000
    O28      O        0.27110    0.20090    0.09200    1.000
    N13      N        0.19230    0.44800    0.78250    1.000
    N14      N        0.22350    0.34840    0.83810    1.000
    C73      C        0.17650    0.49760    0.74960    1.000
    H37      H        0.17410    0.50540    0.66570    1.000
    C74      C        0.16340    0.53790    0.83220    1.000
    C75      C        0.16780    0.52540    0.95560    1.000
    H38      H        0.16120    0.55090    0.01700    1.000
    C76      C        0.18310    0.47130    0.98420    1.000
    H39      H        0.18530    0.46120    0.06680    1.000
    C77      C        0.19410    0.43590    0.90140    1.000
    C78      C        0.21300    0.37970    0.93620    1.000
    C79      C        0.22020    0.35970    0.04920    1.000
    H40      H        0.21370    0.38320    0.11480    1.000
    C80      C        0.23530    0.31040    0.07790    1.000
    H41      H        0.23860    0.29870    0.15930    1.000
    C81      C        0.24620    0.27600    0.97530    1.000
    C82      C        0.24060    0.29850    0.85660    1.000
    H42      H        0.24940    0.27730    0.78840    1.000
    C83      C        0.14680    0.59160    0.79220    1.000
    C84      C        0.26480    0.21840    0.98370    1.000
    In8      In       0.71020    0.88016    0.14444    1.000
    O29      O        0.63960    0.09910    0.17830    1.000
    O30      O        0.63670    0.12740    0.37330    1.000
    O31      O        0.77180    0.69140    0.38860    1.000
    O32      O        0.77110    0.70090    0.59200    1.000
    N15      N        0.69230    0.94800    0.28250    1.000
    N16      N        0.72350    0.84840    0.33810    1.000
    C85      C        0.67650    0.99760    0.24960    1.000
    H43      H        0.67410    0.00540    0.16570    1.000
    C86      C        0.66340    0.03790    0.33220    1.000
    C87      C        0.66780    0.02540    0.45560    1.000
    H44      H        0.66120    0.05090    0.51700    1.000
    C88      C        0.68310    0.97130    0.48420    1.000
    H45      H        0.68530    0.96120    0.56680    1.000
    C89      C        0.69410    0.93590    0.40140    1.000
    C90      C        0.71300    0.87970    0.43620    1.000
    C91      C        0.72020    0.85970    0.54920    1.000
    H46      H        0.71370    0.88320    0.61480    1.000
    C92      C        0.73530    0.81040    0.57790    1.000
    H47      H        0.73860    0.79870    0.65930    1.000
    C93      C        0.74620    0.77600    0.47530    1.000
    C94      C        0.74060    0.79850    0.35660    1.000
    H48      H        0.74940    0.77730    0.28840    1.000
    C95      C        0.64680    0.09160    0.29220    1.000
    C96      C        0.76480    0.71840    0.48370    1.000
