# CIF file generated by openbabel 3.1.0, see https://openbabel.org
data_I
_chemical_name_common 'image0'
_cell_length_a 13.1007
_cell_length_b 13.1007
_cell_length_c 25.985
_cell_angle_alpha 90
_cell_angle_beta 90
_cell_angle_gamma 120
_space_group_name_H-M_alt 'P 1'
_space_group_name_Hall 'P 1'
loop_
    _symmetry_equiv_pos_as_xyz
    x,y,z
loop_
    _atom_site_label
    _atom_site_type_symbol
    _atom_site_fract_x
    _atom_site_fract_y
    _atom_site_fract_z
    _atom_site_occupancy
    N1       N        0.84970    0.88730    0.45173    1.000
    C1       C        0.84820    0.83230    0.40865    1.000
    C2       C        0.73470    0.85490    0.46018    1.000
    N2       N        0.73920    0.76680    0.38952    1.000
    H1       H        0.91679    0.83865    0.39307    1.000
    C3       C        0.66600    0.78080    0.42208    1.000
    H2       H        0.70667    0.88025    0.48836    1.000
    C4       C        0.70300    0.70100    0.33790    1.000
    H3       H        0.58289    0.74563    0.41892    1.000
    C5       C        0.70020    0.58030    0.34980    1.000
    H4       H        0.76169    0.74581    0.31072    1.000
    H5       H        0.62484    0.68636    0.32677    1.000
    C6       C        0.56250    0.48270    0.30840    1.000
    H6       H        0.65103    0.54499    0.38078    1.000
    H7       H        0.66018    0.52575    0.32073    1.000
    C7       C        0.60460    0.56180    0.35630    1.000
    C8       C        0.70680    0.68700    0.34820    1.000
    H8       H        0.62854    0.52314    0.38255    1.000
    H9       H        0.53694    0.56655    0.37040    1.000
    H10      H        0.77693    0.68202    0.33820    1.000
    H11      H        0.68666    0.72161    0.31869    1.000
    N3       N        0.51637    0.22063    0.78506    1.000
    C9       C        0.51487    0.16563    0.74198    1.000
    C10      C        0.40137    0.18823    0.79351    1.000
    N4       N        0.40587    0.10013    0.72285    1.000
    H12      H        0.58346    0.17198    0.72640    1.000
    C11      C        0.33267    0.11413    0.75541    1.000
    H13      H        0.37334    0.21358    0.82169    1.000
    C12      C        0.36967    0.03433    0.67123    1.000
    H14      H        0.24956    0.07896    0.75225    1.000
    C13      C        0.36687    0.91363    0.68313    1.000
    H15      H        0.42836    0.07914    0.64405    1.000
    H16      H        0.29151    0.01969    0.66010    1.000
    C14      C        0.22917    0.81603    0.64173    1.000
    H17      H        0.31770    0.87832    0.71411    1.000
    H18      H        0.32685    0.85908    0.65406    1.000
    C15      C        0.27127    0.89513    0.68963    1.000
    C16      C        0.37347    0.02033    0.68153    1.000
    H19      H        0.29521    0.85647    0.71588    1.000
    H20      H        0.20361    0.89988    0.70373    1.000
    H21      H        0.44360    0.01535    0.67153    1.000
    H22      H        0.35333    0.05494    0.65202    1.000
    N5       N        0.18303    0.55397    0.11840    1.000
    C17      C        0.18153    0.49897    0.07532    1.000
    C18      C        0.06803    0.52157    0.12685    1.000
    N6       N        0.07253    0.43347    0.05619    1.000
    H23      H        0.25012    0.50532    0.05974    1.000
    C19      C        0.99933    0.44747    0.08875    1.000
    H24      H        0.04000    0.54692    0.15503    1.000
    C20      C        0.03633    0.36767    0.00457    1.000
    H25      H        0.91622    0.41230    0.08559    1.000
    C21      C        0.03353    0.24697    0.01647    1.000
    H26      H        0.09502    0.41248    0.97739    1.000
    H27      H        0.95817    0.35303    0.99344    1.000
    C22      C        0.89583    0.14937    0.97507    1.000
    H28      H        0.98436    0.21166    0.04745    1.000
    H29      H        0.99351    0.19242    0.98740    1.000
    C23      C        0.93793    0.22847    0.02297    1.000
    C24      C        0.04013    0.35367    0.01487    1.000
    H30      H        0.96187    0.18981    0.04922    1.000
    H31      H        0.87027    0.23322    0.03707    1.000
    H32      H        0.11026    0.34869    0.00487    1.000
    H33      H        0.01999    0.38828    0.98536    1.000
    N7       N        0.11270    0.96240    0.45173    1.000
    C25      C        0.16770    0.01590    0.40865    1.000
    C26      C        0.14510    0.87980    0.46018    1.000
    N8       N        0.23320    0.97240    0.38952    1.000
    H34      H        0.16135    0.07814    0.39307    1.000
    C27      C        0.21920    0.88520    0.42208    1.000
    H35      H        0.11975    0.82642    0.48836    1.000
    C28      C        0.29900    0.00200    0.33790    1.000
    H36      H        0.25437    0.83726    0.41892    1.000
    C29      C        0.41970    0.11990    0.34980    1.000
    H37      H        0.25419    0.01588    0.31072    1.000
    H38      H        0.31364    0.93848    0.32677    1.000
    C30      C        0.51730    0.07980    0.30840    1.000
    H39      H        0.45501    0.10604    0.38078    1.000
    H40      H        0.47425    0.13443    0.32073    1.000
    C31      C        0.43820    0.04280    0.35630    1.000
    C32      C        0.31300    0.01980    0.34820    1.000
    H41      H        0.47686    0.10540    0.38255    1.000
    H42      H        0.43345    0.97039    0.37040    1.000
    H43      H        0.31798    0.09491    0.33820    1.000
    H44      H        0.27839    0.96505    0.31869    1.000
    N9       N        0.77937    0.29573    0.78506    1.000
    C33      C        0.83437    0.34923    0.74198    1.000
    C34      C        0.81177    0.21313    0.79351    1.000
    N10      N        0.89987    0.30573    0.72285    1.000
    H45      H        0.82802    0.41147    0.72640    1.000
    C35      C        0.88587    0.21853    0.75541    1.000
    H46      H        0.78642    0.15975    0.82169    1.000
    C36      C        0.96567    0.33533    0.67123    1.000
    H47      H        0.92104    0.17059    0.75225    1.000
    C37      C        0.08637    0.45323    0.68313    1.000
    H48      H        0.92086    0.34921    0.64405    1.000
    H49      H        0.98031    0.27181    0.66010    1.000
    C38      C        0.18397    0.41313    0.64173    1.000
    H50      H        0.12168    0.43937    0.71411    1.000
    H51      H        0.14092    0.46776    0.65406    1.000
    C39      C        0.10487    0.37613    0.68963    1.000
    C40      C        0.97967    0.35313    0.68153    1.000
    H52      H        0.14353    0.43873    0.71588    1.000
    H53      H        0.10012    0.30372    0.70373    1.000
    H54      H        0.98465    0.42824    0.67153    1.000
    H55      H        0.94506    0.29838    0.65202    1.000
    N11      N        0.44603    0.62907    0.11840    1.000
    C41      C        0.50103    0.68257    0.07532    1.000
    C42      C        0.47843    0.54647    0.12685    1.000
    N12      N        0.56653    0.63907    0.05619    1.000
    H56      H        0.49468    0.74481    0.05974    1.000
    C43      C        0.55253    0.55187    0.08875    1.000
    H57      H        0.45308    0.49309    0.15503    1.000
    C44      C        0.63233    0.66867    0.00457    1.000
    H58      H        0.58770    0.50393    0.08559    1.000
    C45      C        0.75303    0.78657    0.01647    1.000
    H59      H        0.58752    0.68255    0.97739    1.000
    H60      H        0.64697    0.60515    0.99344    1.000
    C46      C        0.85063    0.74647    0.97507    1.000
    H61      H        0.78834    0.77271    0.04745    1.000
    H62      H        0.80758    0.80110    0.98740    1.000
    C47      C        0.77153    0.70947    0.02297    1.000
    C48      C        0.64633    0.68647    0.01487    1.000
    H63      H        0.81019    0.77207    0.04922    1.000
    H64      H        0.76678    0.63706    0.03707    1.000
    H65      H        0.65131    0.76158    0.00487    1.000
    H66      H        0.61172    0.63172    0.98536    1.000
    N13      N        0.03760    0.15030    0.45173    1.000
    C49      C        0.98410    0.15180    0.40865    1.000
    C50      C        0.12020    0.26530    0.46018    1.000
    N14      N        0.02760    0.26080    0.38952    1.000
    H67      H        0.92186    0.08321    0.39307    1.000
    C51      C        0.11480    0.33400    0.42208    1.000
    H68      H        0.17358    0.29333    0.48836    1.000
    C52      C        0.99800    0.29700    0.33790    1.000
    H69      H        0.16274    0.41711    0.41892    1.000
    C53      C        0.88010    0.29980    0.34980    1.000
    H70      H        0.98412    0.23831    0.31072    1.000
    H71      H        0.06152    0.37516    0.32677    1.000
    C54      C        0.92020    0.43750    0.30840    1.000
    H72      H        0.89396    0.34897    0.38078    1.000
    H73      H        0.86557    0.33982    0.32073    1.000
    C55      C        0.95720    0.39540    0.35630    1.000
    C56      C        0.98020    0.29320    0.34820    1.000
    H74      H        0.89460    0.37146    0.38255    1.000
    H75      H        0.02961    0.46306    0.37040    1.000
    H76      H        0.90509    0.22307    0.33820    1.000
    H77      H        0.03495    0.31334    0.31869    1.000
    N15      N        0.70427    0.48363    0.78506    1.000
    C57      C        0.65077    0.48513    0.74198    1.000
    C58      C        0.78687    0.59863    0.79351    1.000
    N16      N        0.69427    0.59413    0.72285    1.000
    H78      H        0.58853    0.41654    0.72640    1.000
    C59      C        0.78147    0.66733    0.75541    1.000
    H79      H        0.84025    0.62666    0.82169    1.000
    C60      C        0.66467    0.63033    0.67123    1.000
    H80      H        0.82941    0.75044    0.75225    1.000
    C61      C        0.54677    0.63313    0.68313    1.000
    H81      H        0.65079    0.57164    0.64405    1.000
    H82      H        0.72819    0.70849    0.66010    1.000
    C62      C        0.58687    0.77083    0.64173    1.000
    H83      H        0.56063    0.68230    0.71411    1.000
    H84      H        0.53224    0.67315    0.65406    1.000
    C63      C        0.62387    0.72873    0.68963    1.000
    C64      C        0.64687    0.62653    0.68153    1.000
    H85      H        0.56127    0.70479    0.71588    1.000
    H86      H        0.69628    0.79639    0.70373    1.000
    H87      H        0.57176    0.55640    0.67153    1.000
    H88      H        0.70162    0.64667    0.65202    1.000
    N17      N        0.37093    0.81697    0.11840    1.000
    C65      C        0.31743    0.81847    0.07532    1.000
    C66      C        0.45353    0.93197    0.12685    1.000
    N18      N        0.36093    0.92747    0.05619    1.000
    H89      H        0.25519    0.74988    0.05974    1.000
    C67      C        0.44813    0.00067    0.08875    1.000
    H90      H        0.50691    0.96000    0.15503    1.000
    C68      C        0.33133    0.96367    0.00457    1.000
    H91      H        0.49607    0.08378    0.08559    1.000
    C69      C        0.21343    0.96647    0.01647    1.000
    H92      H        0.31745    0.90498    0.97739    1.000
    H93      H        0.39485    0.04183    0.99344    1.000
    C70      C        0.25353    0.10417    0.97507    1.000
    H94      H        0.22729    0.01564    0.04745    1.000
    H95      H        0.19890    0.00649    0.98740    1.000
    C71      C        0.29053    0.06207    0.02297    1.000
    C72      C        0.31353    0.95987    0.01487    1.000
    H96      H        0.22793    0.03813    0.04922    1.000
    H97      H        0.36294    0.12973    0.03707    1.000
    H98      H        0.23842    0.88974    0.00487    1.000
    H99      H        0.36828    0.98001    0.98536    1.000
    N19      N        0.15030    0.11270    0.54827    1.000
    C73      C        0.15180    0.16770    0.59135    1.000
    C74      C        0.26530    0.14510    0.53982    1.000
    N20      N        0.26080    0.23320    0.61048    1.000
    H100     H        0.08321    0.16135    0.60693    1.000
    C75      C        0.33400    0.21920    0.57792    1.000
    H101     H        0.29333    0.11975    0.51164    1.000
    C76      C        0.29700    0.29900    0.66210    1.000
    H102     H        0.41711    0.25437    0.58108    1.000
    C77      C        0.29980    0.41970    0.65020    1.000
    H103     H        0.23831    0.25419    0.68928    1.000
    H104     H        0.37516    0.31364    0.67323    1.000
    C78      C        0.43750    0.51730    0.69160    1.000
    H105     H        0.34897    0.45501    0.61922    1.000
    H106     H        0.33982    0.47425    0.67927    1.000
    C79      C        0.39540    0.43820    0.64370    1.000
    C80      C        0.29320    0.31300    0.65180    1.000
    H107     H        0.37146    0.47686    0.61745    1.000
    H108     H        0.46306    0.43345    0.62960    1.000
    H109     H        0.22307    0.31798    0.66180    1.000
    H110     H        0.31334    0.27839    0.68131    1.000
    N21      N        0.81697    0.44603    0.88160    1.000
    C81      C        0.81847    0.50103    0.92468    1.000
    C82      C        0.93197    0.47843    0.87315    1.000
    N22      N        0.92747    0.56653    0.94381    1.000
    H111     H        0.74988    0.49468    0.94026    1.000
    C83      C        0.00067    0.55253    0.91125    1.000
    H112     H        0.96000    0.45308    0.84497    1.000
    C84      C        0.96367    0.63233    0.99543    1.000
    H113     H        0.08378    0.58770    0.91441    1.000
    C85      C        0.96647    0.75303    0.98353    1.000
    H114     H        0.90498    0.58752    0.02261    1.000
    H115     H        0.04183    0.64697    0.00656    1.000
    C86      C        0.10417    0.85063    0.02493    1.000
    H116     H        0.01564    0.78834    0.95255    1.000
    H117     H        0.00649    0.80758    0.01260    1.000
    C87      C        0.06207    0.77153    0.97703    1.000
    C88      C        0.95987    0.64633    0.98513    1.000
    H118     H        0.03813    0.81019    0.95078    1.000
    H119     H        0.12973    0.76678    0.96293    1.000
    H120     H        0.88974    0.65131    0.99513    1.000
    H121     H        0.98001    0.61172    0.01464    1.000
    N23      N        0.48363    0.77937    0.21494    1.000
    C89      C        0.48513    0.83437    0.25802    1.000
    C90      C        0.59863    0.81177    0.20649    1.000
    N24      N        0.59413    0.89987    0.27715    1.000
    H122     H        0.41654    0.82802    0.27360    1.000
    C91      C        0.66733    0.88587    0.24459    1.000
    H123     H        0.62666    0.78642    0.17831    1.000
    C92      C        0.63033    0.96567    0.32877    1.000
    H124     H        0.75044    0.92104    0.24775    1.000
    C93      C        0.63313    0.08637    0.31687    1.000
    H125     H        0.57164    0.92086    0.35595    1.000
    H126     H        0.70849    0.98031    0.33990    1.000
    C94      C        0.77083    0.18397    0.35827    1.000
    H127     H        0.68230    0.12168    0.28589    1.000
    H128     H        0.67315    0.14092    0.34594    1.000
    C95      C        0.72873    0.10487    0.31037    1.000
    C96      C        0.62653    0.97967    0.31847    1.000
    H129     H        0.70479    0.14353    0.28412    1.000
    H130     H        0.79639    0.10012    0.29627    1.000
    H131     H        0.55640    0.98465    0.32847    1.000
    H132     H        0.64667    0.94506    0.34798    1.000
    N25      N        0.88730    0.03760    0.54827    1.000
    C97      C        0.83230    0.98410    0.59135    1.000
    C98      C        0.85490    0.12020    0.53982    1.000
    N26      N        0.76680    0.02760    0.61048    1.000
    H133     H        0.83865    0.92186    0.60693    1.000
    C99      C        0.78080    0.11480    0.57792    1.000
    H134     H        0.88025    0.17358    0.51164    1.000
    C100     C        0.70100    0.99800    0.66210    1.000
    H135     H        0.74563    0.16274    0.58108    1.000
    C101     C        0.58030    0.88010    0.65020    1.000
    H136     H        0.74581    0.98412    0.68928    1.000
    H137     H        0.68636    0.06152    0.67323    1.000
    C102     C        0.48270    0.92020    0.69160    1.000
    H138     H        0.54499    0.89396    0.61922    1.000
    H139     H        0.52575    0.86557    0.67927    1.000
    C103     C        0.56180    0.95720    0.64370    1.000
    C104     C        0.68700    0.98020    0.65180    1.000
    H140     H        0.52314    0.89460    0.61745    1.000
    H141     H        0.56655    0.02961    0.62960    1.000
    H142     H        0.68202    0.90509    0.66180    1.000
    H143     H        0.72161    0.03495    0.68131    1.000
    N27      N        0.55397    0.37093    0.88160    1.000
    C105     C        0.49897    0.31743    0.92468    1.000
    C106     C        0.52157    0.45353    0.87315    1.000
    N28      N        0.43347    0.36093    0.94381    1.000
    H144     H        0.50532    0.25519    0.94026    1.000
    C107     C        0.44747    0.44813    0.91125    1.000
    H145     H        0.54692    0.50691    0.84497    1.000
    C108     C        0.36767    0.33133    0.99543    1.000
    H146     H        0.41230    0.49607    0.91441    1.000
    C109     C        0.24697    0.21343    0.98353    1.000
    H147     H        0.41248    0.31745    0.02261    1.000
    H148     H        0.35303    0.39485    0.00656    1.000
    C110     C        0.14937    0.25353    0.02493    1.000
    H149     H        0.21166    0.22729    0.95255    1.000
    H150     H        0.19242    0.19890    0.01260    1.000
    C111     C        0.22847    0.29053    0.97703    1.000
    C112     C        0.35367    0.31353    0.98513    1.000
    H151     H        0.18981    0.22793    0.95078    1.000
    H152     H        0.23322    0.36294    0.96293    1.000
    H153     H        0.34869    0.23842    0.99513    1.000
    H154     H        0.38828    0.36828    0.01464    1.000
    N29      N        0.22063    0.70427    0.21494    1.000
    C113     C        0.16563    0.65077    0.25802    1.000
    C114     C        0.18823    0.78687    0.20649    1.000
    N30      N        0.10013    0.69427    0.27715    1.000
    H155     H        0.17198    0.58853    0.27360    1.000
    C115     C        0.11413    0.78147    0.24459    1.000
    H156     H        0.21358    0.84025    0.17831    1.000
    C116     C        0.03433    0.66467    0.32877    1.000
    H157     H        0.07896    0.82941    0.24775    1.000
    C117     C        0.91363    0.54677    0.31687    1.000
    H158     H        0.07914    0.65079    0.35595    1.000
    H159     H        0.01969    0.72819    0.33990    1.000
    C118     C        0.81603    0.58687    0.35827    1.000
    H160     H        0.87832    0.56063    0.28589    1.000
    H161     H        0.85908    0.53224    0.34594    1.000
    C119     C        0.89513    0.62387    0.31037    1.000
    C120     C        0.02033    0.64687    0.31847    1.000
    H162     H        0.85647    0.56127    0.28412    1.000
    H163     H        0.89988    0.69628    0.29627    1.000
    H164     H        0.01535    0.57176    0.32847    1.000
    H165     H        0.05494    0.70162    0.34798    1.000
    N31      N        0.96240    0.84970    0.54827    1.000
    C121     C        0.01590    0.84820    0.59135    1.000
    C122     C        0.87980    0.73470    0.53982    1.000
    N32      N        0.97240    0.73920    0.61048    1.000
    H166     H        0.07814    0.91679    0.60693    1.000
    C123     C        0.88520    0.66600    0.57792    1.000
    H167     H        0.82642    0.70667    0.51164    1.000
    C124     C        0.00200    0.70300    0.66210    1.000
    H168     H        0.83726    0.58289    0.58108    1.000
    C125     C        0.11990    0.70020    0.65020    1.000
    H169     H        0.01588    0.76169    0.68928    1.000
    H170     H        0.93848    0.62484    0.67323    1.000
    C126     C        0.07980    0.56250    0.69160    1.000
    H171     H        0.10604    0.65103    0.61922    1.000
    H172     H        0.13443    0.66018    0.67927    1.000
    C127     C        0.04280    0.60460    0.64370    1.000
    C128     C        0.01980    0.70680    0.65180    1.000
    H173     H        0.10540    0.62854    0.61745    1.000
    H174     H        0.97039    0.53694    0.62960    1.000
    H175     H        0.09491    0.77693    0.66180    1.000
    H176     H        0.96505    0.68666    0.68131    1.000
    N33      N        0.62907    0.18303    0.88160    1.000
    C129     C        0.68257    0.18153    0.92468    1.000
    C130     C        0.54647    0.06803    0.87315    1.000
    N34      N        0.63907    0.07253    0.94381    1.000
    H177     H        0.74481    0.25012    0.94026    1.000
    C131     C        0.55187    0.99933    0.91125    1.000
    H178     H        0.49309    0.04000    0.84497    1.000
    C132     C        0.66867    0.03633    0.99543    1.000
    H179     H        0.50393    0.91622    0.91441    1.000
    C133     C        0.78657    0.03353    0.98353    1.000
    H180     H        0.68255    0.09502    0.02261    1.000
    H181     H        0.60515    0.95817    0.00656    1.000
    C134     C        0.74647    0.89583    0.02493    1.000
    H182     H        0.77271    0.98436    0.95255    1.000
    H183     H        0.80110    0.99351    0.01260    1.000
    C135     C        0.70947    0.93793    0.97703    1.000
    C136     C        0.68647    0.04013    0.98513    1.000
    H184     H        0.77207    0.96187    0.95078    1.000
    H185     H        0.63706    0.87027    0.96293    1.000
    H186     H        0.76158    0.11026    0.99513    1.000
    H187     H        0.63172    0.01999    0.01464    1.000
    N35      N        0.29573    0.51637    0.21494    1.000
    C137     C        0.34923    0.51487    0.25802    1.000
    C138     C        0.21313    0.40137    0.20649    1.000
    N36      N        0.30573    0.40587    0.27715    1.000
    H188     H        0.41147    0.58346    0.27360    1.000
    C139     C        0.21853    0.33267    0.24459    1.000
    H189     H        0.15975    0.37334    0.17831    1.000
    C140     C        0.33533    0.36967    0.32877    1.000
    H190     H        0.17059    0.24956    0.24775    1.000
    C141     C        0.45323    0.36687    0.31687    1.000
    H191     H        0.34921    0.42836    0.35595    1.000
    H192     H        0.27181    0.29151    0.33990    1.000
    C142     C        0.41313    0.22917    0.35827    1.000
    H193     H        0.43937    0.31770    0.28589    1.000
    H194     H        0.46776    0.32685    0.34594    1.000
    C143     C        0.37613    0.27127    0.31037    1.000
    C144     C        0.35313    0.37347    0.31847    1.000
    H195     H        0.43873    0.29521    0.28412    1.000
    H196     H        0.30372    0.20361    0.29627    1.000
    H197     H        0.42824    0.44360    0.32847    1.000
    H198     H        0.29838    0.35333    0.34798    1.000
    Co1      Co       0.00000    0.00000    0.50000    1.000
    Co2      Co       0.66667    0.33333    0.83333    1.000
    Co3      Co       0.33333    0.66667    0.16667    1.000
