# CIF file generated by openbabel 3.1.0, see https://openbabel.org
data_I
_chemical_name_common 'image0'
_cell_length_a 24.087
_cell_length_b 5.3812
_cell_length_c 6.66
_cell_angle_alpha 90
_cell_angle_beta 90
_cell_angle_gamma 90
_space_group_name_H-M_alt 'P 1'
_space_group_name_Hall 'P 1'
loop_
    _symmetry_equiv_pos_as_xyz
    x,y,z
loop_
    _atom_site_label
    _atom_site_type_symbol
    _atom_site_fract_x
    _atom_site_fract_y
    _atom_site_fract_z
    _atom_site_occupancy
    O1       O        0.68270    0.45760    0.18550    1.000
    O2       O        0.55030    0.93760    0.68860    1.000
    O3       O        0.31730    0.54240    0.18550    1.000
    O4       O        0.44970    0.06240    0.68860    1.000
    O5       O        0.81730    0.95760    0.31450    1.000
    O6       O        0.94970    0.43760    0.81140    1.000
    O7       O        0.18270    0.04240    0.31450    1.000
    O8       O        0.05030    0.56240    0.81140    1.000
    O9       O        0.31730    0.54240    0.81450    1.000
    O10      O        0.44970    0.06240    0.31140    1.000
    O11      O        0.68270    0.45760    0.81450    1.000
    O12      O        0.55030    0.93760    0.31140    1.000
    O13      O        0.18270    0.04240    0.68550    1.000
    O14      O        0.05030    0.56240    0.18860    1.000
    O15      O        0.81730    0.95760    0.68550    1.000
    O16      O        0.94970    0.43760    0.18860    1.000
    Zr1      Zr       0.68410    0.45000    0.50000    1.000
    P1       P        0.58720    0.95770    0.50000    1.000
    O17      O        0.62800    0.74300    0.50000    1.000
    O18      O        0.61760    0.20500    0.50000    1.000
    Zr2      Zr       0.31590    0.55000    0.50000    1.000
    P2       P        0.41280    0.04230    0.50000    1.000
    O19      O        0.37200    0.25700    0.50000    1.000
    O20      O        0.38240    0.79500    0.50000    1.000
    Zr3      Zr       0.81590    0.95000    0.00000    1.000
    P3       P        0.91280    0.45770    0.00000    1.000
    O21      O        0.87200    0.24300    0.00000    1.000
    O22      O        0.88240    0.70500    0.00000    1.000
    Zr4      Zr       0.18410    0.05000    0.00000    1.000
    P4       P        0.08720    0.54230    0.00000    1.000
    O23      O        0.12800    0.75700    0.00000    1.000
    O24      O        0.11760    0.29500    0.00000    1.000
    P5       P        0.72070    0.44370    0.00000    1.000
    O25      O        0.76110    0.65950    0.00000    1.000
    O26      O        0.75260    0.19750    0.00000    1.000
    P6       P        0.27930    0.55630    0.00000    1.000
    O27      O        0.23890    0.34050    0.00000    1.000
    O28      O        0.24740    0.80250    0.00000    1.000
    P7       P        0.77930    0.94370    0.50000    1.000
    O29      O        0.73890    0.15950    0.50000    1.000
    O30      O        0.74740    0.69750    0.50000    1.000
    P8       P        0.22070    0.05630    0.50000    1.000
    O31      O        0.26110    0.84050    0.50000    1.000
    O32      O        0.25260    0.30250    0.50000    1.000
    H1       H        0.50000    0.00000    0.31140    1.000
    H2       H        0.00000    0.50000    0.18860    1.000
    H3       H        0.50000    0.00000    0.68860    1.000
    H4       H        0.00000    0.50000    0.81140    1.000
