# CIF file generated by openbabel 3.1.0, see https://openbabel.org
data_I
_chemical_name_common 'image0'
_cell_length_a 5.0996
_cell_length_b 21.2595
_cell_length_c 8.9209
_cell_angle_alpha 90
_cell_angle_beta 90.2394
_cell_angle_gamma 90
_space_group_name_H-M_alt 'P 1'
_space_group_name_Hall 'P 1'
loop_
    _symmetry_equiv_pos_as_xyz
    x,y,z
loop_
    _atom_site_label
    _atom_site_type_symbol
    _atom_site_fract_x
    _atom_site_fract_y
    _atom_site_fract_z
    _atom_site_occupancy
    Ti1      Ti       0.72781    0.10040    0.02196    1.000
    P1       P        0.21323    0.38578    0.26543    1.000
    P2       P        0.23973    0.04614    0.83991    1.000
    O1       O        0.26380    0.32270    0.34900    1.000
    O2       O        0.72040    0.19070    0.96930    1.000
    O3       O        0.41740    0.39243    0.14160    1.000
    O4       O        0.02490    0.09140    0.89370    1.000
    O5       O        0.93840    0.38292    0.19590    1.000
    O6       O        0.75090    0.01240    0.06180    1.000
    O7       O        0.50590    0.08086    0.84430    1.000
    O8       O        0.23470    0.43885    0.37990    1.000
    O9       O        0.18490    0.02950    0.67600    1.000
    Ti2      Ti       0.27219    0.60040    0.97804    1.000
    P3       P        0.78677    0.88578    0.73457    1.000
    P4       P        0.76027    0.54614    0.16009    1.000
    O10      O        0.73620    0.82270    0.65100    1.000
    O11      O        0.27960    0.69070    0.03070    1.000
    O12      O        0.58260    0.89243    0.85840    1.000
    O13      O        0.97510    0.59140    0.10630    1.000
    O14      O        0.06160    0.88292    0.80410    1.000
    O15      O        0.24910    0.51240    0.93820    1.000
    O16      O        0.49410    0.58086    0.15570    1.000
    O17      O        0.76530    0.93885    0.62010    1.000
    O18      O        0.81510    0.52950    0.32400    1.000
    Ti3      Ti       0.27219    0.89960    0.97804    1.000
    P5       P        0.78677    0.61422    0.73457    1.000
    P6       P        0.76027    0.95386    0.16009    1.000
    O19      O        0.73620    0.67730    0.65100    1.000
    O20      O        0.27960    0.80930    0.03070    1.000
    O21      O        0.58260    0.60757    0.85840    1.000
    O22      O        0.97510    0.90860    0.10630    1.000
    O23      O        0.06160    0.61708    0.80410    1.000
    O24      O        0.24910    0.98760    0.93820    1.000
    O25      O        0.49410    0.91914    0.15570    1.000
    O26      O        0.76530    0.56115    0.62010    1.000
    O27      O        0.81510    0.97050    0.32400    1.000
    Ti4      Ti       0.72781    0.39960    0.02196    1.000
    P7       P        0.21323    0.11422    0.26543    1.000
    P8       P        0.23973    0.45386    0.83991    1.000
    O28      O        0.26380    0.17730    0.34900    1.000
    O29      O        0.72040    0.30930    0.96930    1.000
    O30      O        0.41740    0.10757    0.14160    1.000
    O31      O        0.02490    0.40860    0.89370    1.000
    O32      O        0.93840    0.11708    0.19590    1.000
    O33      O        0.75090    0.48760    0.06180    1.000
    O34      O        0.50590    0.41914    0.84430    1.000
    O35      O        0.23470    0.06115    0.37990    1.000
    O36      O        0.18490    0.47050    0.67600    1.000
    Ga1      Ga       0.31530    0.25000    0.24392    1.000
    P9       P        0.80270    0.25000    0.05581    1.000
    O37      O        0.66760    0.25000    0.21090    1.000
    O38      O        0.10260    0.25000    0.07860    1.000
    Ga2      Ga       0.68470    0.75000    0.75608    1.000
    P10      P        0.19730    0.75000    0.94419    1.000
    O39      O        0.33240    0.75000    0.78910    1.000
    O40      O        0.89740    0.75000    0.92140    1.000
    Ti5      Ti       0.00000    0.50000    0.50000    1.000
    Ti6      Ti       0.00000    0.00000    0.50000    1.000
