# CIF file generated by openbabel 3.1.0, see https://openbabel.org
data_I
_chemical_name_common 'image0'
_cell_length_a 17.437
_cell_length_b 10.02
_cell_length_c 17.902
_cell_angle_alpha 90
_cell_angle_beta 117.903
_cell_angle_gamma 90
_space_group_name_H-M_alt 'P 1'
_space_group_name_Hall 'P 1'
loop_
    _symmetry_equiv_pos_as_xyz
    x,y,z
loop_
    _atom_site_label
    _atom_site_type_symbol
    _atom_site_fract_x
    _atom_site_fract_y
    _atom_site_fract_z
    _atom_site_occupancy
    Zn1      Zn       0.87593    0.85985    0.80651    1.000
    Zn2      Zn       0.65217    0.34939    0.67922    1.000
    O1       O        0.76160    0.27830    0.64480    1.000
    N1       N        0.95620    0.83180    0.93190    1.000
    N2       N        0.55940    0.30330    0.56020    1.000
    N3       N        0.53540    0.17290    0.53560    1.000
    N4       N        0.97490    0.69990    0.96060    1.000
    N5       N        0.71430    0.52740    0.69700    1.000
    N6       N        0.75960    0.70770    0.66300    1.000
    N7       N        0.70890    0.60230    0.63160    1.000
    N8       N        0.80120    0.69920    0.74940    1.000
    N9       N        0.05890    0.90750    0.71900    1.000
    N10      N        0.95890    0.90550    0.76140    1.000
    N11      N        0.79450    0.00670    0.79470    1.000
    N12      N        0.71100    0.19400    0.75700    1.000
    N13      N        0.06940    0.01490    0.76860    1.000
    N14      N        0.01200    0.01480    0.79430    1.000
    C1       C        0.77180    0.58530    0.76650    1.000
    C2       C        0.75690    0.93120    0.90990    1.000
    H1       H        0.79100    0.85470    0.92510    1.000
    C3       C        0.79780    0.53150    0.85310    1.000
    H2       H        0.83920    0.59060    0.89460    1.000
    H3       H        0.82340    0.44480    0.85860    1.000
    H4       H        0.74750    0.52470    0.86160    1.000
    C4       C        0.65800    0.08150    0.92820    1.000
    H5       H        0.62670    0.10250    0.95680    1.000
    C5       C        0.70800    0.96370    0.94940    1.000
    H6       H        0.70790    0.90710    0.99050    1.000
    C6       C        0.98980    0.84330    0.71550    1.000
    C7       C        0.76560    0.11390    0.74360    1.000
    C8       C        0.75440    0.01630    0.84600    1.000
    C9       C        0.79040    0.14480    0.67480    1.000
    H7       H        0.85380    0.14160    0.69930    1.000
    C10      C        0.70340    0.13310    0.82370    1.000
    C11      C        0.65450    0.16680    0.86560    1.000
    H8       H        0.62100    0.24400    0.85160    1.000
    C12      C        0.75120    0.04580    0.60140    1.000
    H9       H        0.76930    0.06850    0.55990    1.000
    H10      H        0.68900    0.04940    0.57610    1.000
    H11      H        0.77050    0.95720    0.62200    1.000
    C13      C        0.95120    0.71530    0.66700    1.000
    H12      H        0.90180    0.69010    0.67390    1.000
    H13      H        0.99390    0.64560    0.68840    1.000
    H14      H        0.93360    0.72920    0.60820    1.000
    H15      H        0.54920    0.56070    0.55000    1.000
    H16      H        0.44760    0.56070    0.49900    1.000
    H17      H        0.50320    0.56070    0.45100    1.000
    H18      H        0.96370    0.08970    0.94370    1.000
    H19      H        0.05810    0.08970    0.01930    1.000
    H20      H        0.97820    0.08970    0.03700    1.000
    Zn3      Zn       0.37593    0.35985    0.80651    1.000
    Zn4      Zn       0.15217    0.84939    0.67922    1.000
    O2       O        0.26160    0.77830    0.64480    1.000
    N15      N        0.45620    0.33180    0.93190    1.000
    N16      N        0.05940    0.80330    0.56020    1.000
    N17      N        0.03540    0.67290    0.53560    1.000
    N18      N        0.47490    0.19990    0.96060    1.000
    N19      N        0.21430    0.02740    0.69700    1.000
    N20      N        0.25960    0.20770    0.66300    1.000
    N21      N        0.20890    0.10230    0.63160    1.000
    N22      N        0.30120    0.19920    0.74940    1.000
    N23      N        0.55890    0.40750    0.71900    1.000
    N24      N        0.45890    0.40550    0.76140    1.000
    N25      N        0.29450    0.50670    0.79470    1.000
    N26      N        0.21100    0.69400    0.75700    1.000
    N27      N        0.56940    0.51490    0.76860    1.000
    N28      N        0.51200    0.51480    0.79430    1.000
    C14      C        0.27180    0.08530    0.76650    1.000
    C15      C        0.25690    0.43120    0.90990    1.000
    H21      H        0.29100    0.35470    0.92510    1.000
    C16      C        0.29780    0.03150    0.85310    1.000
    H22      H        0.33920    0.09060    0.89460    1.000
    H23      H        0.32340    0.94480    0.85860    1.000
    H24      H        0.24750    0.02470    0.86160    1.000
    C17      C        0.15800    0.58150    0.92820    1.000
    H25      H        0.12670    0.60250    0.95680    1.000
    C18      C        0.20800    0.46370    0.94940    1.000
    H26      H        0.20790    0.40710    0.99050    1.000
    C19      C        0.48980    0.34330    0.71550    1.000
    C20      C        0.26560    0.61390    0.74360    1.000
    C21      C        0.25440    0.51630    0.84600    1.000
    C22      C        0.29040    0.64480    0.67480    1.000
    H27      H        0.35380    0.64160    0.69930    1.000
    C23      C        0.20340    0.63310    0.82370    1.000
    C24      C        0.15450    0.66680    0.86560    1.000
    H28      H        0.12100    0.74400    0.85160    1.000
    C25      C        0.25120    0.54580    0.60140    1.000
    H29      H        0.26930    0.56850    0.55990    1.000
    H30      H        0.18900    0.54940    0.57610    1.000
    H31      H        0.27050    0.45720    0.62200    1.000
    C26      C        0.45120    0.21530    0.66700    1.000
    H32      H        0.40180    0.19010    0.67390    1.000
    H33      H        0.49390    0.14560    0.68840    1.000
    H34      H        0.43360    0.22920    0.60820    1.000
    H35      H        0.04920    0.06070    0.55000    1.000
    H36      H        0.94760    0.06070    0.49900    1.000
    H37      H        0.00320    0.06070    0.45100    1.000
    H38      H        0.46370    0.58970    0.94370    1.000
    H39      H        0.55810    0.58970    0.01930    1.000
    H40      H        0.47820    0.58970    0.03700    1.000
    Zn5      Zn       0.12407    0.85985    0.19349    1.000
    Zn6      Zn       0.34783    0.34939    0.32078    1.000
    O3       O        0.23840    0.27830    0.35520    1.000
    N29      N        0.04380    0.83180    0.06810    1.000
    N30      N        0.44060    0.30330    0.43980    1.000
    N31      N        0.46460    0.17290    0.46440    1.000
    N32      N        0.02510    0.69990    0.03940    1.000
    N33      N        0.28570    0.52740    0.30300    1.000
    N34      N        0.24040    0.70770    0.33700    1.000
    N35      N        0.29110    0.60230    0.36840    1.000
    N36      N        0.19880    0.69920    0.25060    1.000
    N37      N        0.94110    0.90750    0.28100    1.000
    N38      N        0.04110    0.90550    0.23860    1.000
    N39      N        0.20550    0.00670    0.20530    1.000
    N40      N        0.28900    0.19400    0.24300    1.000
    N41      N        0.93060    0.01490    0.23140    1.000
    N42      N        0.98800    0.01480    0.20570    1.000
    C27      C        0.22820    0.58530    0.23350    1.000
    C28      C        0.24310    0.93120    0.09010    1.000
    H41      H        0.20900    0.85470    0.07490    1.000
    C29      C        0.20220    0.53150    0.14690    1.000
    H42      H        0.16080    0.59060    0.10540    1.000
    H43      H        0.17660    0.44480    0.14140    1.000
    H44      H        0.25250    0.52470    0.13840    1.000
    C30      C        0.34200    0.08150    0.07180    1.000
    H45      H        0.37330    0.10250    0.04320    1.000
    C31      C        0.29200    0.96370    0.05060    1.000
    H46      H        0.29210    0.90710    0.00950    1.000
    C32      C        0.01020    0.84330    0.28450    1.000
    C33      C        0.23440    0.11390    0.25640    1.000
    C34      C        0.24560    0.01630    0.15400    1.000
    C35      C        0.20960    0.14480    0.32520    1.000
    H47      H        0.14620    0.14160    0.30070    1.000
    C36      C        0.29660    0.13310    0.17630    1.000
    C37      C        0.34550    0.16680    0.13440    1.000
    H48      H        0.37900    0.24400    0.14840    1.000
    C38      C        0.24880    0.04580    0.39860    1.000
    H49      H        0.23070    0.06850    0.44010    1.000
    H50      H        0.31100    0.04940    0.42390    1.000
    H51      H        0.22950    0.95720    0.37800    1.000
    C39      C        0.04880    0.71530    0.33300    1.000
    H52      H        0.09820    0.69010    0.32610    1.000
    H53      H        0.00610    0.64560    0.31160    1.000
    H54      H        0.06640    0.72920    0.39180    1.000
    H55      H        0.45080    0.56070    0.45000    1.000
    H56      H        0.55240    0.56070    0.50100    1.000
    H57      H        0.49680    0.56070    0.54900    1.000
    H58      H        0.03630    0.08970    0.05630    1.000
    H59      H        0.94190    0.08970    0.98070    1.000
    H60      H        0.02180    0.08970    0.96300    1.000
    Zn7      Zn       0.62407    0.35985    0.19349    1.000
    Zn8      Zn       0.84783    0.84939    0.32078    1.000
    O4       O        0.73840    0.77830    0.35520    1.000
    N43      N        0.54380    0.33180    0.06810    1.000
    N44      N        0.94060    0.80330    0.43980    1.000
    N45      N        0.96460    0.67290    0.46440    1.000
    N46      N        0.52510    0.19990    0.03940    1.000
    N47      N        0.78570    0.02740    0.30300    1.000
    N48      N        0.74040    0.20770    0.33700    1.000
    N49      N        0.79110    0.10230    0.36840    1.000
    N50      N        0.69880    0.19920    0.25060    1.000
    N51      N        0.44110    0.40750    0.28100    1.000
    N52      N        0.54110    0.40550    0.23860    1.000
    N53      N        0.70550    0.50670    0.20530    1.000
    N54      N        0.78900    0.69400    0.24300    1.000
    N55      N        0.43060    0.51490    0.23140    1.000
    N56      N        0.48800    0.51480    0.20570    1.000
    C40      C        0.72820    0.08530    0.23350    1.000
    C41      C        0.74310    0.43120    0.09010    1.000
    H61      H        0.70900    0.35470    0.07490    1.000
    C42      C        0.70220    0.03150    0.14690    1.000
    H62      H        0.66080    0.09060    0.10540    1.000
    H63      H        0.67660    0.94480    0.14140    1.000
    H64      H        0.75250    0.02470    0.13840    1.000
    C43      C        0.84200    0.58150    0.07180    1.000
    H65      H        0.87330    0.60250    0.04320    1.000
    C44      C        0.79200    0.46370    0.05060    1.000
    H66      H        0.79210    0.40710    0.00950    1.000
    C45      C        0.51020    0.34330    0.28450    1.000
    C46      C        0.73440    0.61390    0.25640    1.000
    C47      C        0.74560    0.51630    0.15400    1.000
    C48      C        0.70960    0.64480    0.32520    1.000
    H67      H        0.64620    0.64160    0.30070    1.000
    C49      C        0.79660    0.63310    0.17630    1.000
    C50      C        0.84550    0.66680    0.13440    1.000
    H68      H        0.87900    0.74400    0.14840    1.000
    C51      C        0.74880    0.54580    0.39860    1.000
    H69      H        0.73070    0.56850    0.44010    1.000
    H70      H        0.81100    0.54940    0.42390    1.000
    H71      H        0.72950    0.45720    0.37800    1.000
    C52      C        0.54880    0.21530    0.33300    1.000
    H72      H        0.59820    0.19010    0.32610    1.000
    H73      H        0.50610    0.14560    0.31160    1.000
    H74      H        0.56640    0.22920    0.39180    1.000
    H75      H        0.95080    0.06070    0.45000    1.000
    H76      H        0.05240    0.06070    0.50100    1.000
    H77      H        0.99680    0.06070    0.54900    1.000
    H78      H        0.53630    0.58970    0.05630    1.000
    H79      H        0.44190    0.58970    0.98070    1.000
    H80      H        0.52180    0.58970    0.96300    1.000
    C53      C        0.50000    0.37860    0.50000    1.000
    C54      C        0.50000    0.52870    0.50000    1.000
    C55      C        0.00000    0.87860    0.50000    1.000
    C56      C        0.00000    0.02870    0.50000    1.000
    C57      C        0.00000    0.90560    0.00000    1.000
    C58      C        0.00000    0.05780    0.00000    1.000
    C59      C        0.50000    0.40560    0.00000    1.000
    C60      C        0.50000    0.55780    0.00000    1.000
