# CIF file generated by openbabel 3.1.0, see https://openbabel.org
data_I
_chemical_name_common 'image0'
_cell_length_a 24.552
_cell_length_b 24.552
_cell_length_c 4.845
_cell_angle_alpha 90
_cell_angle_beta 90
_cell_angle_gamma 90
_space_group_name_H-M_alt 'P 1'
_space_group_name_Hall 'P 1'
loop_
    _symmetry_equiv_pos_as_xyz
    x,y,z
loop_
    _atom_site_label
    _atom_site_type_symbol
    _atom_site_fract_x
    _atom_site_fract_y
    _atom_site_fract_z
    _atom_site_occupancy
    N1       N        0.96820    0.56920    0.48260    1.000
    C1       C        0.96240    0.64210    0.11840    1.000
    C2       C        0.91470    0.66290    0.01840    1.000
    C3       C        0.91370    0.70330    0.82490    1.000
    C4       C        0.96120    0.72800    0.72470    1.000
    C5       C        0.01110    0.70780    0.82460    1.000
    C6       C        0.00970    0.66430    0.02690    1.000
    C7       C        0.96560    0.60230    0.31790    1.000
    H1       H        0.88190    0.64910    0.08420    1.000
    H2       H        0.88020    0.71480    0.75700    1.000
    H3       H        0.04410    0.72200    0.76260    1.000
    H4       H        0.04250    0.65110    0.09660    1.000
    N2       N        0.46820    0.06920    0.98260    1.000
    C8       C        0.46240    0.14210    0.61840    1.000
    C9       C        0.41470    0.16290    0.51840    1.000
    C10      C        0.41370    0.20330    0.32490    1.000
    C11      C        0.46120    0.22800    0.22470    1.000
    C12      C        0.51110    0.20780    0.32460    1.000
    C13      C        0.50970    0.16430    0.52690    1.000
    C14      C        0.46560    0.10230    0.81790    1.000
    H5       H        0.38190    0.14910    0.58420    1.000
    H6       H        0.38020    0.21480    0.25700    1.000
    H7       H        0.54410    0.22200    0.26260    1.000
    H8       H        0.54250    0.15110    0.59660    1.000
    N3       N        0.03180    0.43080    0.48260    1.000
    C15      C        0.03760    0.35790    0.11840    1.000
    C16      C        0.08530    0.33710    0.01840    1.000
    C17      C        0.08630    0.29670    0.82490    1.000
    C18      C        0.03880    0.27200    0.72470    1.000
    C19      C        0.98890    0.29220    0.82460    1.000
    C20      C        0.99030    0.33570    0.02690    1.000
    C21      C        0.03440    0.39770    0.31790    1.000
    H9       H        0.11810    0.35090    0.08420    1.000
    H10      H        0.11980    0.28520    0.75700    1.000
    H11      H        0.95590    0.27800    0.76260    1.000
    H12      H        0.95750    0.34890    0.09660    1.000
    N4       N        0.53180    0.93080    0.98260    1.000
    C22      C        0.53760    0.85790    0.61840    1.000
    C23      C        0.58530    0.83710    0.51840    1.000
    C24      C        0.58630    0.79670    0.32490    1.000
    C25      C        0.53880    0.77200    0.22470    1.000
    C26      C        0.48890    0.79220    0.32460    1.000
    C27      C        0.49030    0.83570    0.52690    1.000
    C28      C        0.53440    0.89770    0.81790    1.000
    H13      H        0.61810    0.85090    0.58420    1.000
    H14      H        0.61980    0.78520    0.25700    1.000
    H15      H        0.45590    0.77800    0.26260    1.000
    H16      H        0.45750    0.84890    0.59660    1.000
    N5       N        0.56920    0.03180    0.51740    1.000
    C29      C        0.64210    0.03760    0.88160    1.000
    C30      C        0.66290    0.08530    0.98160    1.000
    C31      C        0.70330    0.08630    0.17510    1.000
    C32      C        0.72800    0.03880    0.27530    1.000
    C33      C        0.70780    0.98890    0.17540    1.000
    C34      C        0.66430    0.99030    0.97310    1.000
    C35      C        0.60230    0.03440    0.68210    1.000
    H17      H        0.64910    0.11810    0.91580    1.000
    H18      H        0.71480    0.11980    0.24300    1.000
    H19      H        0.72200    0.95590    0.23740    1.000
    H20      H        0.65110    0.95750    0.90340    1.000
    N6       N        0.06920    0.53180    0.01740    1.000
    C36      C        0.14210    0.53760    0.38160    1.000
    C37      C        0.16290    0.58530    0.48160    1.000
    C38      C        0.20330    0.58630    0.67510    1.000
    C39      C        0.22800    0.53880    0.77530    1.000
    C40      C        0.20780    0.48890    0.67540    1.000
    C41      C        0.16430    0.49030    0.47310    1.000
    C42      C        0.10230    0.53440    0.18210    1.000
    H21      H        0.14910    0.61810    0.41580    1.000
    H22      H        0.21480    0.61980    0.74300    1.000
    H23      H        0.22200    0.45590    0.73740    1.000
    H24      H        0.15110    0.45750    0.40340    1.000
    N7       N        0.43080    0.96820    0.51740    1.000
    C43      C        0.35790    0.96240    0.88160    1.000
    C44      C        0.33710    0.91470    0.98160    1.000
    C45      C        0.29670    0.91370    0.17510    1.000
    C46      C        0.27200    0.96120    0.27530    1.000
    C47      C        0.29220    0.01110    0.17540    1.000
    C48      C        0.33570    0.00970    0.97310    1.000
    C49      C        0.39770    0.96560    0.68210    1.000
    H25      H        0.35090    0.88190    0.91580    1.000
    H26      H        0.28520    0.88020    0.24300    1.000
    H27      H        0.27800    0.04410    0.23740    1.000
    H28      H        0.34890    0.04250    0.90340    1.000
    N8       N        0.93080    0.46820    0.01740    1.000
    C50      C        0.85790    0.46240    0.38160    1.000
    C51      C        0.83710    0.41470    0.48160    1.000
    C52      C        0.79670    0.41370    0.67510    1.000
    C53      C        0.77200    0.46120    0.77530    1.000
    C54      C        0.79220    0.51110    0.67540    1.000
    C55      C        0.83570    0.50970    0.47310    1.000
    C56      C        0.89770    0.46560    0.18210    1.000
    H29      H        0.85090    0.38190    0.41580    1.000
    H30      H        0.78520    0.38020    0.74300    1.000
    H31      H        0.77800    0.54410    0.73740    1.000
    H32      H        0.84890    0.54250    0.40340    1.000
    N9       N        0.53180    0.56920    0.26740    1.000
    C57      C        0.53760    0.64210    0.63160    1.000
    C58      C        0.58530    0.66290    0.73160    1.000
    C59      C        0.58630    0.70330    0.92510    1.000
    C60      C        0.53880    0.72800    0.02530    1.000
    C61      C        0.48890    0.70780    0.92540    1.000
    C62      C        0.49030    0.66430    0.72310    1.000
    C63      C        0.53440    0.60230    0.43210    1.000
    H33      H        0.61810    0.64910    0.66580    1.000
    H34      H        0.61980    0.71480    0.99300    1.000
    H35      H        0.45590    0.72200    0.98740    1.000
    H36      H        0.45750    0.65110    0.65340    1.000
    N10      N        0.03180    0.06920    0.76740    1.000
    C64      C        0.03760    0.14210    0.13160    1.000
    C65      C        0.08530    0.16290    0.23160    1.000
    C66      C        0.08630    0.20330    0.42510    1.000
    C67      C        0.03880    0.22800    0.52530    1.000
    C68      C        0.98890    0.20780    0.42540    1.000
    C69      C        0.99030    0.16430    0.22310    1.000
    C70      C        0.03440    0.10230    0.93210    1.000
    H37      H        0.11810    0.14910    0.16580    1.000
    H38      H        0.11980    0.21480    0.49300    1.000
    H39      H        0.95590    0.22200    0.48740    1.000
    H40      H        0.95750    0.15110    0.15340    1.000
    N11      N        0.46820    0.43080    0.26740    1.000
    C71      C        0.46240    0.35790    0.63160    1.000
    C72      C        0.41470    0.33710    0.73160    1.000
    C73      C        0.41370    0.29670    0.92510    1.000
    C74      C        0.46120    0.27200    0.02530    1.000
    C75      C        0.51110    0.29220    0.92540    1.000
    C76      C        0.50970    0.33570    0.72310    1.000
    C77      C        0.46560    0.39770    0.43210    1.000
    H41      H        0.38190    0.35090    0.66580    1.000
    H42      H        0.38020    0.28520    0.99300    1.000
    H43      H        0.54410    0.27800    0.98740    1.000
    H44      H        0.54250    0.34890    0.65340    1.000
    N12      N        0.96820    0.93080    0.76740    1.000
    C78      C        0.96240    0.85790    0.13160    1.000
    C79      C        0.91470    0.83710    0.23160    1.000
    C80      C        0.91370    0.79670    0.42510    1.000
    C81      C        0.96120    0.77200    0.52530    1.000
    C82      C        0.01110    0.79220    0.42540    1.000
    C83      C        0.00970    0.83570    0.22310    1.000
    C84      C        0.96560    0.89770    0.93210    1.000
    H45      H        0.88190    0.85090    0.16580    1.000
    H46      H        0.88020    0.78520    0.49300    1.000
    H47      H        0.04410    0.77800    0.48740    1.000
    H48      H        0.04250    0.84890    0.15340    1.000
    N13      N        0.93080    0.03180    0.23260    1.000
    C85      C        0.85790    0.03760    0.86840    1.000
    C86      C        0.83710    0.08530    0.76840    1.000
    C87      C        0.79670    0.08630    0.57490    1.000
    C88      C        0.77200    0.03880    0.47470    1.000
    C89      C        0.79220    0.98890    0.57460    1.000
    C90      C        0.83570    0.99030    0.77690    1.000
    C91      C        0.89770    0.03440    0.06790    1.000
    H49      H        0.85090    0.11810    0.83420    1.000
    H50      H        0.78520    0.11980    0.50700    1.000
    H51      H        0.77800    0.95590    0.51260    1.000
    H52      H        0.84890    0.95750    0.84660    1.000
    N14      N        0.43080    0.53180    0.73260    1.000
    C92      C        0.35790    0.53760    0.36840    1.000
    C93      C        0.33710    0.58530    0.26840    1.000
    C94      C        0.29670    0.58630    0.07490    1.000
    C95      C        0.27200    0.53880    0.97470    1.000
    C96      C        0.29220    0.48890    0.07460    1.000
    C97      C        0.33570    0.49030    0.27690    1.000
    C98      C        0.39770    0.53440    0.56790    1.000
    H53      H        0.35090    0.61810    0.33420    1.000
    H54      H        0.28520    0.61980    0.00700    1.000
    H55      H        0.27800    0.45590    0.01260    1.000
    H56      H        0.34890    0.45750    0.34660    1.000
    N15      N        0.06920    0.96820    0.23260    1.000
    C99      C        0.14210    0.96240    0.86840    1.000
    C100     C        0.16290    0.91470    0.76840    1.000
    C101     C        0.20330    0.91370    0.57490    1.000
    C102     C        0.22800    0.96120    0.47470    1.000
    C103     C        0.20780    0.01110    0.57460    1.000
    C104     C        0.16430    0.00970    0.77690    1.000
    C105     C        0.10230    0.96560    0.06790    1.000
    H57      H        0.14910    0.88190    0.83420    1.000
    H58      H        0.21480    0.88020    0.50700    1.000
    H59      H        0.22200    0.04410    0.51260    1.000
    H60      H        0.15110    0.04250    0.84660    1.000
    N16      N        0.56920    0.46820    0.73260    1.000
    C106     C        0.64210    0.46240    0.36840    1.000
    C107     C        0.66290    0.41470    0.26840    1.000
    C108     C        0.70330    0.41370    0.07490    1.000
    C109     C        0.72800    0.46120    0.97470    1.000
    C110     C        0.70780    0.51110    0.07460    1.000
    C111     C        0.66430    0.50970    0.27690    1.000
    C112     C        0.60230    0.46560    0.56790    1.000
    H61      H        0.64910    0.38190    0.33420    1.000
    H62      H        0.71480    0.38020    0.00700    1.000
    H63      H        0.72200    0.54410    0.01260    1.000
    H64      H        0.65110    0.54250    0.34660    1.000
    Ag1      Ag       0.00000    0.50000    0.75000    1.000
    Ag2      Ag       0.50000    0.00000    0.25000    1.000
    Ag3      Ag       0.50000    0.50000    0.00000    1.000
    Ag4      Ag       0.00000    0.00000    0.50000    1.000
