# CIF file generated by openbabel 3.1.0, see https://openbabel.org
data_I
_chemical_name_common 'image0'
_cell_length_a 9.0595
_cell_length_b 7.4628
_cell_length_c 9.4321
_cell_angle_alpha 90
_cell_angle_beta 90
_cell_angle_gamma 90
_space_group_name_H-M_alt 'P 1'
_space_group_name_Hall 'P 1'
loop_
    _symmetry_equiv_pos_as_xyz
    x,y,z
loop_
    _atom_site_label
    _atom_site_type_symbol
    _atom_site_fract_x
    _atom_site_fract_y
    _atom_site_fract_z
    _atom_site_occupancy
    F1       F        0.64700    0.55630    0.63320    1.000
    F2       F        0.14700    0.05630    0.13320    1.000
    F3       F        0.35300    0.94370    0.63320    1.000
    F4       F        0.85300    0.44370    0.13320    1.000
    F5       F        0.35300    0.05630    0.36680    1.000
    F6       F        0.85300    0.55630    0.86680    1.000
    F7       F        0.64700    0.44370    0.36680    1.000
    F8       F        0.14700    0.94370    0.86680    1.000
    F9       F        0.35300    0.44370    0.36680    1.000
    F10      F        0.85300    0.94370    0.86680    1.000
    F11      F        0.64700    0.05630    0.36680    1.000
    F12      F        0.14700    0.55630    0.86680    1.000
    F13      F        0.64700    0.94370    0.63320    1.000
    F14      F        0.14700    0.44370    0.13320    1.000
    F15      F        0.35300    0.55630    0.63320    1.000
    F16      F        0.85300    0.05630    0.13320    1.000
    Zn1      Zn       0.75000    0.75000    0.75000    1.000
    Zn2      Zn       0.25000    0.75000    0.75000    1.000
    Zn3      Zn       0.25000    0.25000    0.25000    1.000
    Zn4      Zn       0.75000    0.25000    0.25000    1.000
    V1       V        0.50000    0.50000    0.50000    1.000
    V2       V        0.00000    0.00000    0.00000    1.000
    V3       V        0.50000    0.00000    0.50000    1.000
    V4       V        0.00000    0.50000    0.00000    1.000
    F17      F        0.50000    0.75000    0.42450    1.000
    F18      F        0.00000    0.25000    0.92450    1.000
    F19      F        0.50000    0.25000    0.57550    1.000
    F20      F        0.00000    0.75000    0.07550    1.000
