# CIF file generated by openbabel 3.1.0, see https://openbabel.org
data_I
_chemical_name_common 'image0'
_cell_length_a 10.3371
_cell_length_b 11.1671
_cell_length_c 11.8689
_cell_angle_alpha 94.257
_cell_angle_beta 107.004
_cell_angle_gamma 108.419
_space_group_name_H-M_alt 'P 1'
_space_group_name_Hall 'P 1'
loop_
    _symmetry_equiv_pos_as_xyz
    x,y,z
loop_
    _atom_site_label
    _atom_site_type_symbol
    _atom_site_fract_x
    _atom_site_fract_y
    _atom_site_fract_z
    _atom_site_occupancy
    C1       C        0.30240    0.26130    0.34290    1.000
    C2       C        0.40080    0.38260    0.42260    1.000
    C3       C        0.36340    0.44540    0.50340    1.000
    H1       H        0.27070    0.40940    0.50710    1.000
    C4       C        0.54340    0.43820    0.41810    1.000
    C5       C        0.79510    0.01000    0.08010    1.000
    C6       C        0.64350    0.00570    0.03930    1.000
    C7       C        0.59940    0.08500    0.10590    1.000
    C8       C        0.54620    0.92590    0.93510    1.000
    H2       H        0.57800    0.87710    0.88990    1.000
    C9       C        0.96330    0.74480    0.99790    1.000
    C10      C        0.97980    0.61840    0.99810    1.000
    C11      C        0.99370    0.56290    0.09890    1.000
    H3       H        0.98790    0.60520    0.16680    1.000
    C12      C        0.98440    0.55080    0.89630    1.000
    C13      C        0.18980    0.96520    0.45580    1.000
    H4       H        0.28480    0.00800    0.46040    1.000
    C14      C        0.15040    0.92700    0.55340    1.000
    H5       H        0.20870    0.94530    0.63340    1.000
    C15      C        0.96910    0.85460    0.38580    1.000
    C16      C        0.81810    0.78600    0.30090    1.000
    H6       H        0.81410    0.79890    0.22110    1.000
    H7       H        0.75280    0.81890    0.32430    1.000
    H8       H        0.79060    0.69570    0.30290    1.000
    N1       N        0.60200    0.39100    0.33500    1.000
    N2       N        0.68600    0.17000    0.20700    1.000
    N3       N        0.98600    0.60200    0.78800    1.000
    N4       N        0.07570    0.93380    0.35380    1.000
    N5       N        0.00760    0.85570    0.50530    1.000
    O1       O        0.17490    0.21130    0.35120    1.000
    O2       O        0.33800    0.20570    0.27220    1.000
    O3       O        0.87010    0.04180    0.18810    1.000
    O4       O        0.84630    0.98160    0.00120    1.000
    O5       O        0.99480    0.81390    0.10030    1.000
    O6       O        0.92020    0.77940    0.90070    1.000
    Eu1      Eu       0.09977    0.03499    0.17766    1.000
    C17      C        0.69760    0.73870    0.65710    1.000
    C18      C        0.59920    0.61740    0.57740    1.000
    C19      C        0.63660    0.55460    0.49660    1.000
    H9       H        0.72930    0.59060    0.49290    1.000
    C20      C        0.45660    0.56180    0.58190    1.000
    C21      C        0.20490    0.99000    0.91990    1.000
    C22      C        0.35650    0.99430    0.96070    1.000
    C23      C        0.40060    0.91500    0.89410    1.000
    C24      C        0.45380    0.07410    0.06490    1.000
    H10      H        0.42200    0.12290    0.11010    1.000
    C25      C        0.03670    0.25520    0.00210    1.000
    C26      C        0.02020    0.38160    0.00190    1.000
    C27      C        0.00630    0.43710    0.90110    1.000
    H11      H        0.01210    0.39480    0.83320    1.000
    C28      C        0.01560    0.44920    0.10370    1.000
    C29      C        0.81020    0.03480    0.54420    1.000
    H12      H        0.71520    0.99200    0.53960    1.000
    C30      C        0.84960    0.07300    0.44660    1.000
    H13      H        0.79130    0.05470    0.36660    1.000
    C31      C        0.03090    0.14540    0.61420    1.000
    C32      C        0.18190    0.21400    0.69910    1.000
    H14      H        0.18590    0.20110    0.77890    1.000
    H15      H        0.24720    0.18110    0.67570    1.000
    H16      H        0.20940    0.30430    0.69710    1.000
    N6       N        0.39800    0.60900    0.66500    1.000
    N7       N        0.31400    0.83000    0.79300    1.000
    N8       N        0.01400    0.39800    0.21200    1.000
    N9       N        0.92430    0.06620    0.64620    1.000
    N10      N        0.99240    0.14430    0.49470    1.000
    O7       O        0.82510    0.78870    0.64880    1.000
    O8       O        0.66200    0.79430    0.72780    1.000
    O9       O        0.12990    0.95820    0.81190    1.000
    O10      O        0.15370    0.01840    0.99880    1.000
    O11      O        0.00520    0.18610    0.89970    1.000
    O12      O        0.07980    0.22060    0.09930    1.000
    Eu2      Eu       0.90023    0.96501    0.82234    1.000
