# CIF file generated by openbabel 3.1.0, see https://openbabel.org
data_I
_chemical_name_common 'image0'
_cell_length_a 8.2
_cell_length_b 8.2
_cell_length_c 18.606
_cell_angle_alpha 90
_cell_angle_beta 90
_cell_angle_gamma 120
_space_group_name_H-M_alt 'P 1'
_space_group_name_Hall 'P 1'
loop_
    _symmetry_equiv_pos_as_xyz
    x,y,z
loop_
    _atom_site_label
    _atom_site_type_symbol
    _atom_site_fract_x
    _atom_site_fract_y
    _atom_site_fract_z
    _atom_site_occupancy
    S1       S        0.34780    0.16840    0.42840    1.000
    C1       C        0.33100    0.32720    0.37930    1.000
    N1       N        0.32590    0.43880    0.34370    1.000
    S2       S        0.83160    0.17940    0.42840    1.000
    C2       C        0.67280    0.00380    0.37930    1.000
    N2       N        0.56120    0.88710    0.34370    1.000
    S3       S        0.82060    0.65220    0.42840    1.000
    C3       C        0.99620    0.66900    0.37930    1.000
    N3       N        0.11290    0.67410    0.34370    1.000
    S4       S        0.65220    0.83160    0.92840    1.000
    C4       C        0.66900    0.67280    0.87930    1.000
    N4       N        0.67410    0.56120    0.84370    1.000
    S5       S        0.16840    0.82060    0.92840    1.000
    C5       C        0.32720    0.99620    0.87930    1.000
    N5       N        0.43880    0.11290    0.84370    1.000
    S6       S        0.17940    0.34780    0.92840    1.000
    C6       C        0.00380    0.33100    0.87930    1.000
    N6       N        0.88710    0.32590    0.84370    1.000
    S7       S        0.65220    0.83160    0.57160    1.000
    C7       C        0.66900    0.67280    0.62070    1.000
    N7       N        0.67410    0.56120    0.65630    1.000
    S8       S        0.16840    0.82060    0.57160    1.000
    C8       C        0.32720    0.99620    0.62070    1.000
    N8       N        0.43880    0.11290    0.65630    1.000
    S9       S        0.17940    0.34780    0.57160    1.000
    C9       C        0.00380    0.33100    0.62070    1.000
    N9       N        0.88710    0.32590    0.65630    1.000
    S10      S        0.34780    0.16840    0.07160    1.000
    C10      C        0.33100    0.32720    0.12070    1.000
    N10      N        0.32590    0.43880    0.15630    1.000
    S11      S        0.83160    0.17940    0.07160    1.000
    C11      C        0.67280    0.00380    0.12070    1.000
    N11      N        0.56120    0.88710    0.15630    1.000
    S12      S        0.82060    0.65220    0.07160    1.000
    C12      C        0.99620    0.66900    0.12070    1.000
    N12      N        0.11290    0.67410    0.15630    1.000
    Bi1      Bi       0.00000    0.00000    0.50000    1.000
    Bi2      Bi       0.00000    0.00000    0.00000    1.000
    Nd1      Nd       0.33333    0.66667    0.25000    1.000
    Nd2      Nd       0.66667    0.33333    0.75000    1.000
