# CIF file generated by openbabel 3.1.0, see https://openbabel.org
data_I
_chemical_name_common 'image0'
_cell_length_a 10.546
_cell_length_b 10.653
_cell_length_c 11.422
_cell_angle_alpha 82.68
_cell_angle_beta 74.1
_cell_angle_gamma 69.42
_space_group_name_H-M_alt 'P 1'
_space_group_name_Hall 'P 1'
loop_
    _symmetry_equiv_pos_as_xyz
    x,y,z
loop_
    _atom_site_label
    _atom_site_type_symbol
    _atom_site_fract_x
    _atom_site_fract_y
    _atom_site_fract_z
    _atom_site_occupancy
    Nd1      Nd       0.58900    0.59851    0.62829    1.000
    O1       O        0.39790    0.62240    0.40690    1.000
    O2       O        0.47160    0.75110    0.49050    1.000
    O3       O        0.26770    0.25400    0.44830    1.000
    O4       O        0.04150    0.32060    0.45530    1.000
    O5       O        0.87970    0.05940    0.25800    1.000
    O6       O        0.95580    0.84780    0.27420    1.000
    O7       O        0.00720    0.43940    0.66780    1.000
    O8       O        0.77910    0.48840    0.71720    1.000
    O9       O        0.53450    0.47590    0.16120    1.000
    O10      O        0.66070    0.38660    0.29420    1.000
    O11      O        0.17180    0.25200    0.15560    1.000
    O12      O        0.27020    0.23720    0.96510    1.000
    N1       N        0.96440    0.95570    0.28330    1.000
    N2       N        0.16700    0.26410    0.05000    1.000
    C1       C        0.28060    0.85740    0.40460    1.000
    C2       C        0.27660    0.98340    0.43090    1.000
    H1       H        0.34650    0.99020    0.46210    1.000
    C3       C        0.17030    0.09770    0.41120    1.000
    C4       C        0.06590    0.08790    0.36390    1.000
    H2       H        0.99190    0.16380    0.35260    1.000
    C5       C        0.07440    0.96360    0.33420    1.000
    C6       C        0.17890    0.84660    0.35410    1.000
    H3       H        0.18110    0.76360    0.33450    1.000
    C7       C        0.39180    0.73340    0.43490    1.000
    C8       C        0.16150    0.23460    0.44050    1.000
    C9       C        0.89900    0.41370    0.87380    1.000
    C10      C        0.77600    0.43790    0.96580    1.000
    H4       H        0.69000    0.47610    0.94650    1.000
    C11      C        0.78180    0.40490    0.08690    1.000
    C12      C        0.91110    0.34660    0.11550    1.000
    H5       H        0.91660    0.32370    0.19570    1.000
    C13      C        0.03010    0.32370    0.02200    1.000
    C14      C        0.02700    0.35500    0.90110    1.000
    H6       H        0.10930    0.33690    0.83980    1.000
    C15      C        0.89390    0.45060    0.74350    1.000
    C16      C        0.65060    0.42530    0.18610    1.000
    Nd2      Nd       0.41100    0.40149    0.37171    1.000
    O13      O        0.60210    0.37760    0.59310    1.000
    O14      O        0.52840    0.24890    0.50950    1.000
    O15      O        0.73230    0.74600    0.55170    1.000
    O16      O        0.95850    0.67940    0.54470    1.000
    O17      O        0.12030    0.94060    0.74200    1.000
    O18      O        0.04420    0.15220    0.72580    1.000
    O19      O        0.99280    0.56060    0.33220    1.000
    O20      O        0.22090    0.51160    0.28280    1.000
    O21      O        0.46550    0.52410    0.83880    1.000
    O22      O        0.33930    0.61340    0.70580    1.000
    O23      O        0.82820    0.74800    0.84440    1.000
    O24      O        0.72980    0.76280    0.03490    1.000
    N3       N        0.03560    0.04430    0.71670    1.000
    N4       N        0.83300    0.73590    0.95000    1.000
    C17      C        0.71940    0.14260    0.59540    1.000
    C18      C        0.72340    0.01660    0.56910    1.000
    H7       H        0.65350    0.00980    0.53790    1.000
    C19      C        0.82970    0.90230    0.58880    1.000
    C20      C        0.93410    0.91210    0.63610    1.000
    H8       H        0.00810    0.83620    0.64740    1.000
    C21      C        0.92560    0.03640    0.66580    1.000
    C22      C        0.82110    0.15340    0.64590    1.000
    H9       H        0.81890    0.23640    0.66550    1.000
    C23      C        0.60820    0.26660    0.56510    1.000
    C24      C        0.83850    0.76540    0.55950    1.000
    C25      C        0.10100    0.58630    0.12620    1.000
    C26      C        0.22400    0.56210    0.03420    1.000
    H10      H        0.31000    0.52390    0.05350    1.000
    C27      C        0.21820    0.59510    0.91310    1.000
    C28      C        0.08890    0.65340    0.88450    1.000
    H11      H        0.08340    0.67630    0.80430    1.000
    C29      C        0.96990    0.67630    0.97800    1.000
    C30      C        0.97300    0.64500    0.09890    1.000
    H12      H        0.89070    0.66310    0.16020    1.000
    C31      C        0.10610    0.54940    0.25650    1.000
    C32      C        0.34940    0.57470    0.81390    1.000
    Cu1      Cu       0.00000    0.50000    0.50000    1.000
