# CIF file generated by openbabel 3.1.0, see https://openbabel.org
data_I
_chemical_name_common 'image0'
_cell_length_a 6.7119
_cell_length_b 24.876
_cell_length_c 14.0647
_cell_angle_alpha 90
_cell_angle_beta 90
_cell_angle_gamma 90
_space_group_name_H-M_alt 'P 1'
_space_group_name_Hall 'P 1'
loop_
    _symmetry_equiv_pos_as_xyz
    x,y,z
loop_
    _atom_site_label
    _atom_site_type_symbol
    _atom_site_fract_x
    _atom_site_fract_y
    _atom_site_fract_z
    _atom_site_occupancy
    O1       O        0.11300    0.11600    0.63600    1.000
    O2       O        0.61300    0.61600    0.63600    1.000
    O3       O        0.88700    0.38400    0.63600    1.000
    O4       O        0.38700    0.88400    0.63600    1.000
    O5       O        0.88700    0.61600    0.36400    1.000
    O6       O        0.38700    0.11600    0.36400    1.000
    O7       O        0.11300    0.88400    0.36400    1.000
    O8       O        0.61300    0.38400    0.36400    1.000
    O9       O        0.88700    0.88400    0.36400    1.000
    O10      O        0.38700    0.38400    0.36400    1.000
    O11      O        0.11300    0.61600    0.36400    1.000
    O12      O        0.61300    0.11600    0.36400    1.000
    O13      O        0.11300    0.38400    0.63600    1.000
    O14      O        0.61300    0.88400    0.63600    1.000
    O15      O        0.88700    0.11600    0.63600    1.000
    O16      O        0.38700    0.61600    0.63600    1.000
    C1       C        0.00000    0.16460    0.01870    1.000
    H1       H        0.00000    0.19630    0.98090    1.000
    C2       C        0.00000    0.11590    0.97370    1.000
    H2       H        0.00000    0.11420    0.90620    1.000
    C3       C        0.00000    0.07030    0.02550    1.000
    C4       C        0.00000    0.07320    0.12440    1.000
    H3       H        0.00000    0.04160    0.16220    1.000
    C5       C        0.00000    0.12470    0.16670    1.000
    H4       H        0.00000    0.12770    0.23400    1.000
    C6       C        0.00000    0.20350    0.54010    1.000
    H5       H        0.00000    0.17040    0.50640    1.000
    C7       C        0.00000    0.20250    0.63910    1.000
    N1       N        0.00000    0.16980    0.11310    1.000
    N2       N        0.00000    0.01940    0.97450    1.000
    N3       N        0.00000    0.15110    0.67800    1.000
    O17      O        0.00000    0.29430    0.34110    1.000
    O18      O        0.00000    0.14490    0.76070    1.000
    C8       C        0.50000    0.66460    0.01870    1.000
    H6       H        0.50000    0.69630    0.98090    1.000
    C9       C        0.50000    0.61590    0.97370    1.000
    H7       H        0.50000    0.61420    0.90620    1.000
    C10      C        0.50000    0.57030    0.02550    1.000
    C11      C        0.50000    0.57320    0.12440    1.000
    H8       H        0.50000    0.54160    0.16220    1.000
    C12      C        0.50000    0.62470    0.16670    1.000
    H9       H        0.50000    0.62770    0.23400    1.000
    C13      C        0.50000    0.70350    0.54010    1.000
    H10      H        0.50000    0.67040    0.50640    1.000
    C14      C        0.50000    0.70250    0.63910    1.000
    N4       N        0.50000    0.66980    0.11310    1.000
    N5       N        0.50000    0.51940    0.97450    1.000
    N6       N        0.50000    0.65110    0.67800    1.000
    O19      O        0.50000    0.79430    0.34110    1.000
    O20      O        0.50000    0.64490    0.76070    1.000
    C15      C        0.00000    0.33540    0.01870    1.000
    H11      H        0.00000    0.30370    0.98090    1.000
    C16      C        0.00000    0.38410    0.97370    1.000
    H12      H        0.00000    0.38580    0.90620    1.000
    C17      C        0.00000    0.42970    0.02550    1.000
    C18      C        0.00000    0.42680    0.12440    1.000
    H13      H        0.00000    0.45840    0.16220    1.000
    C19      C        0.00000    0.37530    0.16670    1.000
    H14      H        0.00000    0.37230    0.23400    1.000
    C20      C        0.00000    0.29650    0.54010    1.000
    H15      H        0.00000    0.32960    0.50640    1.000
    C21      C        0.00000    0.29750    0.63910    1.000
    N7       N        0.00000    0.33020    0.11310    1.000
    N8       N        0.00000    0.48060    0.97450    1.000
    N9       N        0.00000    0.34890    0.67800    1.000
    O21      O        0.00000    0.20570    0.34110    1.000
    O22      O        0.00000    0.35510    0.76070    1.000
    C22      C        0.50000    0.83540    0.01870    1.000
    H16      H        0.50000    0.80370    0.98090    1.000
    C23      C        0.50000    0.88410    0.97370    1.000
    H17      H        0.50000    0.88580    0.90620    1.000
    C24      C        0.50000    0.92970    0.02550    1.000
    C25      C        0.50000    0.92680    0.12440    1.000
    H18      H        0.50000    0.95840    0.16220    1.000
    C26      C        0.50000    0.87530    0.16670    1.000
    H19      H        0.50000    0.87230    0.23400    1.000
    C27      C        0.50000    0.79650    0.54010    1.000
    H20      H        0.50000    0.82960    0.50640    1.000
    C28      C        0.50000    0.79750    0.63910    1.000
    N10      N        0.50000    0.83020    0.11310    1.000
    N11      N        0.50000    0.98060    0.97450    1.000
    N12      N        0.50000    0.84890    0.67800    1.000
    O23      O        0.50000    0.70570    0.34110    1.000
    O24      O        0.50000    0.85510    0.76070    1.000
    C29      C        0.00000    0.66460    0.98130    1.000
    H21      H        0.00000    0.69630    0.01910    1.000
    C30      C        0.00000    0.61590    0.02630    1.000
    H22      H        0.00000    0.61420    0.09380    1.000
    C31      C        0.00000    0.57030    0.97450    1.000
    C32      C        0.00000    0.57320    0.87560    1.000
    H23      H        0.00000    0.54160    0.83780    1.000
    C33      C        0.00000    0.62470    0.83330    1.000
    H24      H        0.00000    0.62770    0.76600    1.000
    C34      C        0.00000    0.70350    0.45990    1.000
    H25      H        0.00000    0.67040    0.49360    1.000
    C35      C        0.00000    0.70250    0.36090    1.000
    N13      N        0.00000    0.66980    0.88690    1.000
    N14      N        0.00000    0.51940    0.02550    1.000
    N15      N        0.00000    0.65110    0.32200    1.000
    O25      O        0.00000    0.79430    0.65890    1.000
    O26      O        0.00000    0.64490    0.23930    1.000
    C36      C        0.50000    0.16460    0.98130    1.000
    H26      H        0.50000    0.19630    0.01910    1.000
    C37      C        0.50000    0.11590    0.02630    1.000
    H27      H        0.50000    0.11420    0.09380    1.000
    C38      C        0.50000    0.07030    0.97450    1.000
    C39      C        0.50000    0.07320    0.87560    1.000
    H28      H        0.50000    0.04160    0.83780    1.000
    C40      C        0.50000    0.12470    0.83330    1.000
    H29      H        0.50000    0.12770    0.76600    1.000
    C41      C        0.50000    0.20350    0.45990    1.000
    H30      H        0.50000    0.17040    0.49360    1.000
    C42      C        0.50000    0.20250    0.36090    1.000
    N16      N        0.50000    0.16980    0.88690    1.000
    N17      N        0.50000    0.01940    0.02550    1.000
    N18      N        0.50000    0.15110    0.32200    1.000
    O27      O        0.50000    0.29430    0.65890    1.000
    O28      O        0.50000    0.14490    0.23930    1.000
    C43      C        0.00000    0.83540    0.98130    1.000
    H31      H        0.00000    0.80370    0.01910    1.000
    C44      C        0.00000    0.88410    0.02630    1.000
    H32      H        0.00000    0.88580    0.09380    1.000
    C45      C        0.00000    0.92970    0.97450    1.000
    C46      C        0.00000    0.92680    0.87560    1.000
    H33      H        0.00000    0.95840    0.83780    1.000
    C47      C        0.00000    0.87530    0.83330    1.000
    H34      H        0.00000    0.87230    0.76600    1.000
    C48      C        0.00000    0.79650    0.45990    1.000
    H35      H        0.00000    0.82960    0.49360    1.000
    C49      C        0.00000    0.79750    0.36090    1.000
    N19      N        0.00000    0.83020    0.88690    1.000
    N20      N        0.00000    0.98060    0.02550    1.000
    N21      N        0.00000    0.84890    0.32200    1.000
    O29      O        0.00000    0.70570    0.65890    1.000
    O30      O        0.00000    0.85510    0.23930    1.000
    C50      C        0.50000    0.33540    0.98130    1.000
    H36      H        0.50000    0.30370    0.01910    1.000
    C51      C        0.50000    0.38410    0.02630    1.000
    H37      H        0.50000    0.38580    0.09380    1.000
    C52      C        0.50000    0.42970    0.97450    1.000
    C53      C        0.50000    0.42680    0.87560    1.000
    H38      H        0.50000    0.45840    0.83780    1.000
    C54      C        0.50000    0.37530    0.83330    1.000
    H39      H        0.50000    0.37230    0.76600    1.000
    C55      C        0.50000    0.29650    0.45990    1.000
    H40      H        0.50000    0.32960    0.49360    1.000
    C56      C        0.50000    0.29750    0.36090    1.000
    N22      N        0.50000    0.33020    0.88690    1.000
    N23      N        0.50000    0.48060    0.02550    1.000
    N24      N        0.50000    0.34890    0.32200    1.000
    O31      O        0.50000    0.20570    0.65890    1.000
    O32      O        0.50000    0.35510    0.23930    1.000
    C57      C        0.00000    0.25000    0.38360    1.000
    C58      C        0.00000    0.25000    0.49040    1.000
    C59      C        0.00000    0.25000    0.69040    1.000
    C60      C        0.00000    0.25000    0.79880    1.000
    Cd1      Cd       0.00000    0.25000    0.19228    1.000
    C61      C        0.50000    0.75000    0.38360    1.000
    C62      C        0.50000    0.75000    0.49040    1.000
    C63      C        0.50000    0.75000    0.69040    1.000
    C64      C        0.50000    0.75000    0.79880    1.000
    Cd2      Cd       0.50000    0.75000    0.19228    1.000
    C65      C        0.00000    0.75000    0.61640    1.000
    C66      C        0.00000    0.75000    0.50960    1.000
    C67      C        0.00000    0.75000    0.30960    1.000
    C68      C        0.00000    0.75000    0.20120    1.000
    Cd3      Cd       0.00000    0.75000    0.80772    1.000
    C69      C        0.50000    0.25000    0.61640    1.000
    C70      C        0.50000    0.25000    0.50960    1.000
    C71      C        0.50000    0.25000    0.30960    1.000
    C72      C        0.50000    0.25000    0.20120    1.000
    Cd4      Cd       0.50000    0.25000    0.80772    1.000
    O33      O        0.16060    0.25000    0.83960    1.000
    O34      O        0.66060    0.75000    0.83960    1.000
    O35      O        0.83940    0.25000    0.83960    1.000
    O36      O        0.33940    0.75000    0.83960    1.000
    O37      O        0.83940    0.75000    0.16040    1.000
    O38      O        0.33940    0.25000    0.16040    1.000
    O39      O        0.16060    0.75000    0.16040    1.000
    O40      O        0.66060    0.25000    0.16040    1.000
