# CIF file generated by openbabel 3.1.0, see https://openbabel.org
data_I
_chemical_name_common 'image0'
_cell_length_a 26.4363
_cell_length_b 26.4363
_cell_length_c 7.1068
_cell_angle_alpha 90
_cell_angle_beta 90
_cell_angle_gamma 120
_space_group_name_H-M_alt 'P 1'
_space_group_name_Hall 'P 1'
loop_
    _symmetry_equiv_pos_as_xyz
    x,y,z
loop_
    _atom_site_label
    _atom_site_type_symbol
    _atom_site_fract_x
    _atom_site_fract_y
    _atom_site_fract_z
    _atom_site_occupancy
    Mn1      Mn       0.96290    0.64300    0.99600    1.000
    C1       C        0.01950    0.59790    0.76700    1.000
    C2       C        0.99980    0.54940    0.91900    1.000
    C3       C        0.98830    0.53800    0.11000    1.000
    C4       C        0.98560    0.49370    0.17700    1.000
    O1       O        0.02610    0.58590    0.59900    1.000
    O2       O        0.00130    0.63580    0.79600    1.000
    O3       O        0.97940    0.58620    0.16000    1.000
    Mn2      Mn       0.62957    0.97633    0.32933    1.000
    C5       C        0.68617    0.93123    0.10033    1.000
    C6       C        0.66647    0.88273    0.25233    1.000
    C7       C        0.65497    0.87133    0.44333    1.000
    C8       C        0.65227    0.82703    0.51033    1.000
    O4       O        0.69277    0.91923    0.93233    1.000
    O5       O        0.66797    0.96913    0.12933    1.000
    O6       O        0.64607    0.91953    0.49333    1.000
    Mn3      Mn       0.29623    0.30967    0.66267    1.000
    C9       C        0.35283    0.26457    0.43367    1.000
    C10      C        0.33313    0.21607    0.58567    1.000
    C11      C        0.32163    0.20467    0.77667    1.000
    C12      C        0.31893    0.16037    0.84367    1.000
    O7       O        0.35943    0.25257    0.26567    1.000
    O8       O        0.33463    0.30247    0.46267    1.000
    O9       O        0.31273    0.25287    0.82667    1.000
    Mn4      Mn       0.35700    0.31990    0.99600    1.000
    C13      C        0.40210    0.42160    0.76700    1.000
    C14      C        0.45060    0.45040    0.91900    1.000
    C15      C        0.46200    0.45030    0.11000    1.000
    C16      C        0.50630    0.49190    0.17700    1.000
    O10      O        0.41410    0.44020    0.59900    1.000
    O11      O        0.36420    0.36550    0.79600    1.000
    O12      O        0.41380    0.39320    0.16000    1.000
    Mn5      Mn       0.02367    0.65323    0.32933    1.000
    C17      C        0.06877    0.75493    0.10033    1.000
    C18      C        0.11727    0.78373    0.25233    1.000
    C19      C        0.12867    0.78363    0.44333    1.000
    C20      C        0.17297    0.82523    0.51033    1.000
    O13      O        0.08077    0.77353    0.93233    1.000
    O14      O        0.03087    0.69883    0.12933    1.000
    O15      O        0.08047    0.72653    0.49333    1.000
    Mn6      Mn       0.69033    0.98657    0.66267    1.000
    C21      C        0.73543    0.08827    0.43367    1.000
    C22      C        0.78393    0.11707    0.58567    1.000
    C23      C        0.79533    0.11697    0.77667    1.000
    C24      C        0.83963    0.15857    0.84367    1.000
    O16      O        0.74743    0.10687    0.26567    1.000
    O17      O        0.69753    0.03217    0.46267    1.000
    O18      O        0.74713    0.05987    0.82667    1.000
    Mn7      Mn       0.68010    0.03710    0.99600    1.000
    C25      C        0.57840    0.98050    0.76700    1.000
    C26      C        0.54960    0.00020    0.91900    1.000
    C27      C        0.54970    0.01170    0.11000    1.000
    C28      C        0.50810    0.01440    0.17700    1.000
    O19      O        0.55980    0.97390    0.59900    1.000
    O20      O        0.63450    0.99870    0.79600    1.000
    O21      O        0.60680    0.02060    0.16000    1.000
    Mn8      Mn       0.34677    0.37043    0.32933    1.000
    C29      C        0.24507    0.31383    0.10033    1.000
    C30      C        0.21627    0.33353    0.25233    1.000
    C31      C        0.21637    0.34503    0.44333    1.000
    C32      C        0.17477    0.34773    0.51033    1.000
    O22      O        0.22647    0.30723    0.93233    1.000
    O23      O        0.30117    0.33203    0.12933    1.000
    O24      O        0.27347    0.35393    0.49333    1.000
    Mn9      Mn       0.01343    0.70377    0.66267    1.000
    C33      C        0.91173    0.64717    0.43367    1.000
    C34      C        0.88293    0.66687    0.58567    1.000
    C35      C        0.88303    0.67837    0.77667    1.000
    C36      C        0.84143    0.68107    0.84367    1.000
    O25      O        0.89313    0.64057    0.26567    1.000
    O26      O        0.96783    0.66537    0.46267    1.000
    O27      O        0.94013    0.68727    0.82667    1.000
    Mn10     Mn       0.03710    0.35700    0.00400    1.000
    C37      C        0.98050    0.40210    0.23300    1.000
    C38      C        0.00020    0.45060    0.08100    1.000
    C39      C        0.01170    0.46200    0.89000    1.000
    C40      C        0.01440    0.50630    0.82300    1.000
    O28      O        0.97390    0.41410    0.40100    1.000
    O29      O        0.99870    0.36420    0.20400    1.000
    O30      O        0.02060    0.41380    0.84000    1.000
    Mn11     Mn       0.70377    0.69033    0.33733    1.000
    C41      C        0.64717    0.73543    0.56633    1.000
    C42      C        0.66687    0.78393    0.41433    1.000
    C43      C        0.67837    0.79533    0.22333    1.000
    C44      C        0.68107    0.83963    0.15633    1.000
    O31      O        0.64057    0.74743    0.73433    1.000
    O32      O        0.66537    0.69753    0.53733    1.000
    O33      O        0.68727    0.74713    0.17333    1.000
    Mn12     Mn       0.37043    0.02367    0.67067    1.000
    C45      C        0.31383    0.06877    0.89967    1.000
    C46      C        0.33353    0.11727    0.74767    1.000
    C47      C        0.34503    0.12867    0.55667    1.000
    C48      C        0.34773    0.17297    0.48967    1.000
    O34      O        0.30723    0.08077    0.06767    1.000
    O35      O        0.33203    0.03087    0.87067    1.000
    O36      O        0.35393    0.08047    0.50667    1.000
    Mn13     Mn       0.64300    0.68010    0.00400    1.000
    C49      C        0.59790    0.57840    0.23300    1.000
    C50      C        0.54940    0.54960    0.08100    1.000
    C51      C        0.53800    0.54970    0.89000    1.000
    C52      C        0.49370    0.50810    0.82300    1.000
    O37      O        0.58590    0.55980    0.40100    1.000
    O38      O        0.63580    0.63450    0.20400    1.000
    O39      O        0.58620    0.60680    0.84000    1.000
    Mn14     Mn       0.30967    0.01343    0.33733    1.000
    C53      C        0.26457    0.91173    0.56633    1.000
    C54      C        0.21607    0.88293    0.41433    1.000
    C55      C        0.20467    0.88303    0.22333    1.000
    C56      C        0.16037    0.84143    0.15633    1.000
    O40      O        0.25257    0.89313    0.73433    1.000
    O41      O        0.30247    0.96783    0.53733    1.000
    O42      O        0.25287    0.94013    0.17333    1.000
    Mn15     Mn       0.97633    0.34677    0.67067    1.000
    C57      C        0.93123    0.24507    0.89967    1.000
    C58      C        0.88273    0.21627    0.74767    1.000
    C59      C        0.87133    0.21637    0.55667    1.000
    C60      C        0.82703    0.17477    0.48967    1.000
    O43      O        0.91923    0.22647    0.06767    1.000
    O44      O        0.96913    0.30117    0.87067    1.000
    O45      O        0.91953    0.27347    0.50667    1.000
    Mn16     Mn       0.31990    0.96290    0.00400    1.000
    C61      C        0.42160    0.01950    0.23300    1.000
    C62      C        0.45040    0.99980    0.08100    1.000
    C63      C        0.45030    0.98830    0.89000    1.000
    C64      C        0.49190    0.98560    0.82300    1.000
    O46      O        0.44020    0.02610    0.40100    1.000
    O47      O        0.36550    0.00130    0.20400    1.000
    O48      O        0.39320    0.97940    0.84000    1.000
    Mn17     Mn       0.98657    0.29623    0.33733    1.000
    C65      C        0.08827    0.35283    0.56633    1.000
    C66      C        0.11707    0.33313    0.41433    1.000
    C67      C        0.11697    0.32163    0.22333    1.000
    C68      C        0.15857    0.31893    0.15633    1.000
    O49      O        0.10687    0.35943    0.73433    1.000
    O50      O        0.03217    0.33463    0.53733    1.000
    O51      O        0.05987    0.31273    0.17333    1.000
    Mn18     Mn       0.65323    0.62957    0.67067    1.000
    C69      C        0.75493    0.68617    0.89967    1.000
    C70      C        0.78373    0.66647    0.74767    1.000
    C71      C        0.78363    0.65497    0.55667    1.000
    C72      C        0.82523    0.65227    0.48967    1.000
    O52      O        0.77353    0.69277    0.06767    1.000
    O53      O        0.69883    0.66797    0.87067    1.000
    O54      O        0.72653    0.64607    0.50667    1.000
