# CIF file generated by openbabel 3.1.0, see https://openbabel.org
data_I
_chemical_name_common 'UKUMAO_clean'
_cell_length_a 7.4306
_cell_length_b 13.177
_cell_length_c 14.0194
_cell_angle_alpha 90
_cell_angle_beta 91.378
_cell_angle_gamma 90
_space_group_name_H-M_alt 'P 1'
_space_group_name_Hall 'P 1'
loop_
    _symmetry_equiv_pos_as_xyz
    x,y,z
loop_
    _atom_site_label
    _atom_site_type_symbol
    _atom_site_fract_x
    _atom_site_fract_y
    _atom_site_fract_z
    _atom_site_occupancy
    Fe1      Fe       0.50000    0.50000    0.00000    1.000
    Fe2      Fe       0.00000    0.00000    0.00000    1.000
    Fe3      Fe       0.00000    0.00000    0.50000    1.000
    Fe4      Fe       0.50000    0.50000    0.50000    1.000
    H1       H        0.37500    0.28400    0.01100    1.000
    H2       H        0.37200    0.15400    0.11500    1.000
    H3       H        0.45700    0.19000    0.26300    1.000
    H4       H        0.52600    0.45900    0.20400    1.000
    H5       H        0.12500    0.78400    0.98900    1.000
    H6       H        0.12800    0.65400    0.88500    1.000
    H7       H        0.04300    0.69000    0.73700    1.000
    H8       H        0.97400    0.95900    0.79600    1.000
    H9       H        0.62500    0.71600    0.98900    1.000
    H10      H        0.62800    0.84600    0.88500    1.000
    H11      H        0.54300    0.81000    0.73700    1.000
    H12      H        0.47400    0.54100    0.79600    1.000
    H13      H        0.87500    0.21600    0.01100    1.000
    H14      H        0.87200    0.34600    0.11500    1.000
    H15      H        0.95700    0.31000    0.26300    1.000
    H16      H        0.02600    0.04100    0.20400    1.000
    Au1      Au       0.73154    0.24735    0.75933    1.000
    Au2      Au       0.97712    0.46033    0.77643    1.000
    Au3      Au       0.76846    0.74735    0.24067    1.000
    Au4      Au       0.52288    0.96033    0.22357    1.000
    Au5      Au       0.26846    0.75265    0.24067    1.000
    Au6      Au       0.02288    0.53967    0.22357    1.000
    Au7      Au       0.23154    0.25265    0.75933    1.000
    Au8      Au       0.47712    0.03967    0.77643    1.000
    C1       C        0.65320    0.34030    0.86140    1.000
    C2       C        0.15050    0.45920    0.88550    1.000
    C3       C        0.40040    0.29960    0.06890    1.000
    C4       C        0.39320    0.21980    0.13320    1.000
    C5       C        0.44430    0.23940    0.22540    1.000
    C6       C        0.49900    0.40450    0.18780    1.000
    C7       C        0.81080    0.15550    0.65480    1.000
    C8       C        0.81690    0.48310    0.66390    1.000
    C9       C        0.84680    0.84030    0.13860    1.000
    C10      C        0.34950    0.95920    0.11450    1.000
    C11      C        0.09960    0.79960    0.93110    1.000
    C12      C        0.10680    0.71980    0.86680    1.000
    C13      C        0.05570    0.73940    0.77460    1.000
    C14      C        0.00100    0.90450    0.81220    1.000
    C15      C        0.68920    0.65550    0.34520    1.000
    C16      C        0.68310    0.98310    0.33610    1.000
    C17      C        0.34680    0.65970    0.13860    1.000
    C18      C        0.84950    0.54080    0.11450    1.000
    C19      C        0.59960    0.70040    0.93110    1.000
    C20      C        0.60680    0.78020    0.86680    1.000
    C21      C        0.55570    0.76060    0.77460    1.000
    C22      C        0.50100    0.59550    0.81220    1.000
    C23      C        0.18920    0.84450    0.34520    1.000
    C24      C        0.18310    0.51690    0.33610    1.000
    C25      C        0.15320    0.15970    0.86140    1.000
    C26      C        0.65050    0.04080    0.88550    1.000
    C27      C        0.90040    0.20040    0.06890    1.000
    C28      C        0.89320    0.28020    0.13320    1.000
    C29      C        0.94430    0.26060    0.22540    1.000
    C30      C        0.99900    0.09550    0.18780    1.000
    C31      C        0.31080    0.34450    0.65480    1.000
    C32      C        0.31690    0.01690    0.66390    1.000
    N1       N        0.60510    0.39850    0.91700    1.000
    N2       N        0.27060    0.47130    0.93830    1.000
    N3       N        0.45820    0.39260    0.09640    1.000
    N4       N        0.49750    0.33250    0.25430    1.000
    N5       N        0.85710    0.10080    0.59740    1.000
    N6       N        0.71780    0.50020    0.60200    1.000
    N7       N        0.89490    0.89850    0.08300    1.000
    N8       N        0.22940    0.97130    0.06170    1.000
    N9       N        0.04180    0.89260    0.90360    1.000
    N10      N        0.00250    0.83250    0.74570    1.000
    N11      N        0.64290    0.60080    0.40260    1.000
    N12      N        0.78220    0.00020    0.39800    1.000
    N13      N        0.39490    0.60150    0.08300    1.000
    N14      N        0.72940    0.52870    0.06170    1.000
    N15      N        0.54180    0.60740    0.90360    1.000
    N16      N        0.50250    0.66750    0.74570    1.000
    N17      N        0.14290    0.89920    0.40260    1.000
    N18      N        0.28220    0.49980    0.39800    1.000
    N19      N        0.10510    0.10150    0.91700    1.000
    N20      N        0.77060    0.02870    0.93830    1.000
    N21      N        0.95820    0.10740    0.09640    1.000
    N22      N        0.99750    0.16750    0.25430    1.000
    N23      N        0.35710    0.39920    0.59740    1.000
    N24      N        0.21780    0.99980    0.60200    1.000
