# CIF file generated by openbabel 3.1.0, see https://openbabel.org
data_I
_chemical_name_common 'image0'
_cell_length_a 12.3768
_cell_length_b 13.1438
_cell_length_c 14.3078
_cell_angle_alpha 81.532
_cell_angle_beta 77.86
_cell_angle_gamma 89.426
_space_group_name_H-M_alt 'P 1'
_space_group_name_Hall 'P 1'
loop_
    _symmetry_equiv_pos_as_xyz
    x,y,z
loop_
    _atom_site_label
    _atom_site_type_symbol
    _atom_site_fract_x
    _atom_site_fract_y
    _atom_site_fract_z
    _atom_site_occupancy
    Yb1      Yb       0.67802    0.86346    0.66556    1.000
    Yb2      Yb       0.39802    0.40956    0.77536    1.000
    Ru1      Ru       0.65895    0.25957    0.48300    1.000
    Ru2      Ru       0.26403    0.66246    0.04309    1.000
    N1       N        0.80620    0.31130    0.51430    1.000
    C1       C        0.81690    0.36500    0.58620    1.000
    H1       H        0.75280    0.38550    0.62800    1.000
    C2       C        0.91990    0.39000    0.59870    1.000
    H2       H        0.92810    0.42800    0.64840    1.000
    C3       C        0.01140    0.35830    0.53720    1.000
    H3       H        0.08280    0.37260    0.54720    1.000
    O1       O        0.70390    0.90560    0.81440    1.000
    O2       O        0.73980    0.84800    0.81310    1.000
    N2       N        0.00310    0.30880    0.46470    1.000
    O3       O        0.79390    0.73690    0.70080    1.000
    O4       O        0.78470    0.71520    0.66310    1.000
    C4       C        0.90150    0.28760    0.45540    1.000
    N3       N        0.78010    0.22270    0.36680    1.000
    C5       C        0.76300    0.17960    0.29120    1.000
    H4       H        0.69000    0.17020    0.28230    1.000
    C6       C        0.85280    0.14910    0.22650    1.000
    H5       H        0.84190    0.11730    0.17360    1.000
    C7       C        0.95360    0.16460    0.23910    1.000
    H6       H        0.01480    0.14390    0.19420    1.000
    N4       N        0.97250    0.20880    0.31340    1.000
    C8       C        0.88530    0.23760    0.37310    1.000
    N5       N        0.10940    0.66460    0.00370    1.000
    C9       C        0.07950    0.61520    0.93730    1.000
    H7       H        0.13260    0.57590    0.90060    1.000
    C10      C        0.97370    0.62000    0.92090    1.000
    H8       H        0.95110    0.58510    0.87430    1.000
    C11      C        0.89990    0.68210    0.98000    1.000
    H9       H        0.82650    0.68980    0.97020    1.000
    N6       N        0.92740    0.72750    0.04480    1.000
    C12      C        0.03080    0.71850    0.05530    1.000
    N7       N        0.16950    0.75590    0.13650    1.000
    C13      C        0.20430    0.80450    0.20200    1.000
    H10      H        0.27850    0.79780    0.20990    1.000
    C14      C        0.13290    0.86330    0.25710    1.000
    H11      H        0.15690    0.89650    0.30400    1.000
    C15      C        0.03280    0.87330    0.24500    1.000
    H12      H        0.98440    0.91430    0.28400    1.000
    N8       N        0.99330    0.82820    0.17920    1.000
    C16      C        0.06690    0.77030    0.12840    1.000
    C17      C        0.67530    0.11680    0.55370    1.000
    N9       N        0.68270    0.03280    0.59110    1.000
    C18      C        0.55650    0.29390    0.59810    1.000
    N10      N        0.49570    0.31100    0.66620    1.000
    C19      C        0.47040    0.78940    0.55980    1.000
    N11      N        0.54430    0.81500    0.58790    1.000
    C20      C        0.63780    0.39810    0.40720    1.000
    N12      N        0.62090    0.47320    0.36080    1.000
    C21      C        0.31790    0.79040    0.94680    1.000
    N13      N        0.35160    0.86410    0.89380    1.000
    C22      C        0.33370    0.57520    0.94680    1.000
    N14      N        0.36840    0.52480    0.88900    1.000
    C23      C        0.60210    0.33780    0.90580    1.000
    N15      N        0.52410    0.34680    0.87250    1.000
    C24      C        0.22530    0.53650    0.14590    1.000
    N16      N        0.21800    0.46470    0.20660    1.000
    N17      N        0.17980    0.39810    0.74340    1.000
    O5       O        0.20880    0.44830    0.80630    1.000
    O6       O        0.25230    0.34110    0.70280    1.000
    O7       O        0.08740    0.40380    0.72880    1.000
    N18      N        0.95280    0.96290    0.55940    1.000
    O8       O        0.86730    0.92810    0.63540    1.000
    O9       O        0.03270    0.01650    0.56950    1.000
    O10      O        0.96800    0.93280    0.48070    1.000
    Yb3      Yb       0.32198    0.13654    0.33444    1.000
    Yb4      Yb       0.60198    0.59044    0.22464    1.000
    Ru3      Ru       0.34105    0.74043    0.51700    1.000
    Ru4      Ru       0.73597    0.33754    0.95691    1.000
    N19      N        0.19380    0.68870    0.48570    1.000
    C25      C        0.18310    0.63500    0.41380    1.000
    H13      H        0.24720    0.61450    0.37200    1.000
    C26      C        0.08010    0.61000    0.40130    1.000
    H14      H        0.07190    0.57200    0.35160    1.000
    C27      C        0.98860    0.64170    0.46280    1.000
    H15      H        0.91720    0.62740    0.45280    1.000
    O11      O        0.29610    0.09440    0.18560    1.000
    O12      O        0.26020    0.15200    0.18690    1.000
    N20      N        0.99690    0.69120    0.53530    1.000
    O13      O        0.20610    0.26310    0.29920    1.000
    O14      O        0.21530    0.28480    0.33690    1.000
    C28      C        0.09850    0.71240    0.54460    1.000
    N21      N        0.21990    0.77730    0.63320    1.000
    C29      C        0.23700    0.82040    0.70880    1.000
    H16      H        0.31000    0.82980    0.71770    1.000
    C30      C        0.14720    0.85090    0.77350    1.000
    H17      H        0.15810    0.88270    0.82640    1.000
    C31      C        0.04640    0.83540    0.76090    1.000
    H18      H        0.98520    0.85610    0.80580    1.000
    N22      N        0.02750    0.79120    0.68660    1.000
    C32      C        0.11470    0.76240    0.62690    1.000
    N23      N        0.89060    0.33540    0.99630    1.000
    C33      C        0.92050    0.38480    0.06270    1.000
    H19      H        0.86740    0.42410    0.09940    1.000
    C34      C        0.02630    0.38000    0.07910    1.000
    H20      H        0.04890    0.41490    0.12570    1.000
    C35      C        0.10010    0.31790    0.02000    1.000
    H21      H        0.17350    0.31020    0.02980    1.000
    N24      N        0.07260    0.27250    0.95520    1.000
    C36      C        0.96920    0.28150    0.94470    1.000
    N25      N        0.83050    0.24410    0.86350    1.000
    C37      C        0.79570    0.19550    0.79800    1.000
    H22      H        0.72150    0.20220    0.79010    1.000
    C38      C        0.86710    0.13670    0.74290    1.000
    H23      H        0.84310    0.10350    0.69600    1.000
    C39      C        0.96720    0.12670    0.75500    1.000
    H24      H        0.01560    0.08570    0.71600    1.000
    N26      N        0.00670    0.17180    0.82080    1.000
    C40      C        0.93310    0.22970    0.87160    1.000
    C41      C        0.32470    0.88320    0.44630    1.000
    N27      N        0.31730    0.96720    0.40890    1.000
    C42      C        0.44350    0.70610    0.40190    1.000
    N28      N        0.50430    0.68900    0.33380    1.000
    C43      C        0.52960    0.21060    0.44020    1.000
    N29      N        0.45570    0.18500    0.41210    1.000
    C44      C        0.36220    0.60190    0.59280    1.000
    N30      N        0.37910    0.52680    0.63920    1.000
    C45      C        0.68210    0.20960    0.05320    1.000
    N31      N        0.64840    0.13590    0.10620    1.000
    C46      C        0.66630    0.42480    0.05320    1.000
    N32      N        0.63160    0.47520    0.11100    1.000
    C47      C        0.39790    0.66220    0.09420    1.000
    N33      N        0.47590    0.65320    0.12750    1.000
    C48      C        0.77470    0.46350    0.85410    1.000
    N34      N        0.78200    0.53530    0.79340    1.000
    N35      N        0.82020    0.60190    0.25660    1.000
    O15      O        0.79120    0.55170    0.19370    1.000
    O16      O        0.74770    0.65890    0.29720    1.000
    O17      O        0.91260    0.59620    0.27120    1.000
    N36      N        0.04720    0.03710    0.44060    1.000
    O18      O        0.13270    0.07190    0.36460    1.000
    O19      O        0.96730    0.98350    0.43050    1.000
    O20      O        0.03200    0.06720    0.51930    1.000
