# CIF file generated by openbabel 3.1.0, see https://openbabel.org
data_I
_chemical_name_common 'CUYHIO_clean'
_cell_length_a 6.2047
_cell_length_b 17.746
_cell_length_c 20.423
_cell_angle_alpha 90
_cell_angle_beta 98.4523
_cell_angle_gamma 90
_space_group_name_H-M_alt 'P 1'
_space_group_name_Hall 'P 1'
loop_
    _symmetry_equiv_pos_as_xyz
    x,y,z
loop_
    _atom_site_label
    _atom_site_type_symbol
    _atom_site_fract_x
    _atom_site_fract_y
    _atom_site_fract_z
    _atom_site_occupancy
    Zn1      Zn       0.21191    0.51380    0.28062    1.000
    Zn2      Zn       0.28809    0.01380    0.21938    1.000
    Zn3      Zn       0.78809    0.48620    0.71938    1.000
    Zn4      Zn       0.71191    0.98620    0.78062    1.000
    H1       H        0.64340    0.71400    0.26550    1.000
    H2       H        0.44350    0.75880    0.28480    1.000
    H3       H        0.66110    0.68360    0.15260    1.000
    H4       H        0.54550    0.69920    0.04260    1.000
    H5       H        0.20660    0.74940    0.00720    1.000
    H6       H        0.99380    0.79090    0.08380    1.000
    H7       H        0.90380    0.79270    0.19320    1.000
    H8       H        0.05870    0.75420    0.25110    1.000
    H9       H        0.75160    0.47320    0.22370    1.000
    H10      H        0.52730    0.47030    0.12590    1.000
    H11      H        0.97900    0.57750    0.04260    1.000
    H12      H        0.19910    0.57700    0.14180    1.000
    H13      H        0.63490    0.54960    0.97420    1.000
    H14      H        0.89270    0.60640    0.34410    1.000
    H15      H        0.65620    0.59560    0.41880    1.000
    H16      H        0.85500    0.38320    0.45230    1.000
    H17      H        0.08420    0.39900    0.37620    1.000
    H18      H        0.57880    0.42940    0.51370    1.000
    H19      H        0.85660    0.21400    0.23450    1.000
    H20      H        0.05650    0.25880    0.21520    1.000
    H21      H        0.83890    0.18360    0.34740    1.000
    H22      H        0.95450    0.19920    0.45740    1.000
    H23      H        0.29340    0.24940    0.49280    1.000
    H24      H        0.50620    0.29090    0.41620    1.000
    H25      H        0.59620    0.29270    0.30680    1.000
    H26      H        0.44130    0.25420    0.24890    1.000
    H27      H        0.74840    0.97320    0.27630    1.000
    H28      H        0.97270    0.97030    0.37410    1.000
    H29      H        0.52100    0.07750    0.45740    1.000
    H30      H        0.30090    0.07700    0.35820    1.000
    H31      H        0.86510    0.04960    0.52580    1.000
    H32      H        0.60730    0.10640    0.15590    1.000
    H33      H        0.84380    0.09560    0.08120    1.000
    H34      H        0.64500    0.88320    0.04770    1.000
    H35      H        0.41580    0.89900    0.12380    1.000
    H36      H        0.92120    0.92940    0.98630    1.000
    H37      H        0.35660    0.28600    0.73450    1.000
    H38      H        0.55650    0.24120    0.71520    1.000
    H39      H        0.33890    0.31640    0.84740    1.000
    H40      H        0.45450    0.30080    0.95740    1.000
    H41      H        0.79340    0.25060    0.99280    1.000
    H42      H        0.00620    0.20910    0.91620    1.000
    H43      H        0.09620    0.20730    0.80680    1.000
    H44      H        0.94130    0.24580    0.74890    1.000
    H45      H        0.24840    0.52680    0.77630    1.000
    H46      H        0.47270    0.52970    0.87410    1.000
    H47      H        0.02100    0.42250    0.95740    1.000
    H48      H        0.80090    0.42300    0.85820    1.000
    H49      H        0.36510    0.45040    0.02580    1.000
    H50      H        0.10730    0.39360    0.65590    1.000
    H51      H        0.34380    0.40440    0.58120    1.000
    H52      H        0.14500    0.61680    0.54770    1.000
    H53      H        0.91580    0.60100    0.62380    1.000
    H54      H        0.42120    0.57060    0.48630    1.000
    H55      H        0.14340    0.78600    0.76550    1.000
    H56      H        0.94350    0.74120    0.78480    1.000
    H57      H        0.16110    0.81640    0.65260    1.000
    H58      H        0.04550    0.80080    0.54260    1.000
    H59      H        0.70660    0.75060    0.50720    1.000
    H60      H        0.49380    0.70910    0.58380    1.000
    H61      H        0.40380    0.70730    0.69320    1.000
    H62      H        0.55870    0.74580    0.75110    1.000
    H63      H        0.25160    0.02680    0.72370    1.000
    H64      H        0.02730    0.02970    0.62590    1.000
    H65      H        0.47900    0.92250    0.54260    1.000
    H66      H        0.69910    0.92300    0.64180    1.000
    H67      H        0.13490    0.95040    0.47420    1.000
    H68      H        0.39270    0.89360    0.84410    1.000
    H69      H        0.15620    0.90440    0.91880    1.000
    H70      H        0.35500    0.11680    0.95230    1.000
    H71      H        0.58420    0.10100    0.87620    1.000
    H72      H        0.07880    0.07060    0.01370    1.000
    C1       C        0.39140    0.64530    0.28050    1.000
    C2       C        0.48570    0.71710    0.25880    1.000
    C3       C        0.40170    0.73000    0.18570    1.000
    C4       C        0.52660    0.70590    0.13880    1.000
    C5       C        0.45720    0.71430    0.07330    1.000
    C6       C        0.25690    0.74490    0.05220    1.000
    C7       C        0.12880    0.76930    0.09850    1.000
    C8       C        0.19710    0.76220    0.16620    1.000
    C9       C        0.05320    0.79010    0.21510    1.000
    C10      C        0.12060    0.86710    0.24350    1.000
    C11      C        0.80070    0.49370    0.18670    1.000
    C12      C        0.66440    0.49220    0.12800    1.000
    C13      C        0.72660    0.52240    0.07200    1.000
    C14      C        0.93070    0.55510    0.07890    1.000
    C15      C        0.06240    0.55480    0.13880    1.000
    C16      C        0.59120    0.52030    0.00760    1.000
    C17      C        0.88450    0.56070    0.36590    1.000
    C18      C        0.74190    0.55460    0.41080    1.000
    C19      C        0.72450    0.48700    0.44460    1.000
    C20      C        0.85840    0.42920    0.43060    1.000
    C21      C        0.99660    0.43930    0.38490    1.000
    C22      C        0.57240    0.47570    0.49220    1.000
    C23      C        0.10860    0.14530    0.21950    1.000
    C24      C        0.01430    0.21710    0.24120    1.000
    C25      C        0.09830    0.23000    0.31430    1.000
    C26      C        0.97340    0.20590    0.36120    1.000
    C27      C        0.04280    0.21430    0.42670    1.000
    C28      C        0.24310    0.24490    0.44780    1.000
    C29      C        0.37120    0.26930    0.40150    1.000
    C30      C        0.30290    0.26220    0.33380    1.000
    C31      C        0.44680    0.29010    0.28490    1.000
    C32      C        0.37940    0.36710    0.25650    1.000
    C33      C        0.69930    0.99370    0.31330    1.000
    C34      C        0.83560    0.99220    0.37200    1.000
    C35      C        0.77340    0.02240    0.42800    1.000
    C36      C        0.56930    0.05510    0.42110    1.000
    C37      C        0.43760    0.05480    0.36120    1.000
    C38      C        0.90880    0.02030    0.49240    1.000
    C39      C        0.61550    0.06070    0.13410    1.000
    C40      C        0.75810    0.05460    0.08920    1.000
    C41      C        0.77550    0.98700    0.05540    1.000
    C42      C        0.64160    0.92920    0.06940    1.000
    C43      C        0.50340    0.93930    0.11510    1.000
    C44      C        0.92760    0.97570    0.00780    1.000
    C45      C        0.60860    0.35470    0.71950    1.000
    C46      C        0.51430    0.28290    0.74120    1.000
    C47      C        0.59830    0.27000    0.81430    1.000
    C48      C        0.47340    0.29410    0.86120    1.000
    C49      C        0.54280    0.28570    0.92670    1.000
    C50      C        0.74310    0.25510    0.94780    1.000
    C51      C        0.87120    0.23070    0.90150    1.000
    C52      C        0.80290    0.23780    0.83380    1.000
    C53      C        0.94680    0.20990    0.78490    1.000
    C54      C        0.87940    0.13290    0.75650    1.000
    C55      C        0.19930    0.50630    0.81330    1.000
    C56      C        0.33560    0.50780    0.87200    1.000
    C57      C        0.27340    0.47760    0.92800    1.000
    C58      C        0.06930    0.44490    0.92110    1.000
    C59      C        0.93760    0.44520    0.86120    1.000
    C60      C        0.40880    0.47970    0.99240    1.000
    C61      C        0.11550    0.43930    0.63410    1.000
    C62      C        0.25810    0.44540    0.58920    1.000
    C63      C        0.27550    0.51300    0.55540    1.000
    C64      C        0.14160    0.57080    0.56940    1.000
    C65      C        0.00340    0.56070    0.61510    1.000
    C66      C        0.42760    0.52430    0.50780    1.000
    C67      C        0.89140    0.85470    0.78050    1.000
    C68      C        0.98570    0.78290    0.75880    1.000
    C69      C        0.90170    0.77000    0.68570    1.000
    C70      C        0.02660    0.79410    0.63880    1.000
    C71      C        0.95720    0.78570    0.57330    1.000
    C72      C        0.75690    0.75510    0.55220    1.000
    C73      C        0.62880    0.73070    0.59850    1.000
    C74      C        0.69710    0.73780    0.66620    1.000
    C75      C        0.55320    0.70990    0.71510    1.000
    C76      C        0.62060    0.63290    0.74350    1.000
    C77      C        0.30070    0.00630    0.68670    1.000
    C78      C        0.16440    0.00780    0.62800    1.000
    C79      C        0.22660    0.97760    0.57200    1.000
    C80      C        0.43070    0.94490    0.57890    1.000
    C81      C        0.56240    0.94520    0.63880    1.000
    C82      C        0.09120    0.97970    0.50760    1.000
    C83      C        0.38450    0.93930    0.86590    1.000
    C84      C        0.24190    0.94540    0.91080    1.000
    C85      C        0.22450    0.01300    0.94460    1.000
    C86      C        0.35840    0.07080    0.93060    1.000
    C87      C        0.49660    0.06070    0.88490    1.000
    C88      C        0.07240    0.02430    0.99220    1.000
    N1       N        0.00220    0.52330    0.19400    1.000
    N2       N        0.01275    0.50410    0.35185    1.000
    N3       N        0.49780    0.02330    0.30600    1.000
    N4       N        0.48725    0.00410    0.14815    1.000
    N5       N        0.99780    0.47670    0.80600    1.000
    N6       N        0.98725    0.49590    0.64815    1.000
    N7       N        0.50220    0.97670    0.69400    1.000
    N8       N        0.51275    0.99590    0.85185    1.000
    O1       O        0.25690    0.64630    0.31900    1.000
    O2       O        0.44096    0.58450    0.25716    1.000
    O3       O        0.13425    0.87990    0.30285    1.000
    O4       O        0.15241    0.91594    0.20091    1.000
    O5       O        0.24310    0.14630    0.18100    1.000
    O6       O        0.05904    0.08450    0.24284    1.000
    O7       O        0.36575    0.37990    0.19715    1.000
    O8       O        0.34759    0.41594    0.29909    1.000
    O9       O        0.74310    0.35370    0.68100    1.000
    O10      O        0.55904    0.41550    0.74284    1.000
    O11      O        0.86575    0.12010    0.69715    1.000
    O12      O        0.84759    0.08406    0.79909    1.000
    O13      O        0.75690    0.85370    0.81900    1.000
    O14      O        0.94096    0.91550    0.75716    1.000
    O15      O        0.63425    0.62010    0.80285    1.000
    O16      O        0.65241    0.58406    0.70091    1.000
