# CIF file generated by openbabel 3.1.0, see https://openbabel.org
data_I
_chemical_name_common 'image0'
_cell_length_a 17.58
_cell_length_b 17.58
_cell_length_c 17.58
_cell_angle_alpha 90
_cell_angle_beta 90
_cell_angle_gamma 90
_space_group_name_H-M_alt 'P 1'
_space_group_name_Hall 'P 1'
loop_
    _symmetry_equiv_pos_as_xyz
    x,y,z
loop_
    _atom_site_label
    _atom_site_type_symbol
    _atom_site_fract_x
    _atom_site_fract_y
    _atom_site_fract_z
    _atom_site_occupancy
    Cu1      Cu       0.50127    0.40556    0.84804    1.000
    C1       C        0.49230    0.26370    0.90900    1.000
    C2       C        0.41360    0.28980    0.88530    1.000
    C3       C        0.48710    0.24230    0.00040    1.000
    O1       O        0.54610    0.32220    0.90210    1.000
    O2       O        0.50900    0.19870    0.87310    1.000
    O3       O        0.45310    0.17650    0.01210    1.000
    O4       O        0.36080    0.24020    0.88900    1.000
    O5       O        0.40190    0.35600    0.86760    1.000
    O6       O        0.51910    0.28110    0.04630    1.000
    Cu2      Cu       0.99873    0.59444    0.34804    1.000
    C4       C        0.00770    0.73630    0.40900    1.000
    C5       C        0.08640    0.71020    0.38530    1.000
    C6       C        0.01290    0.75770    0.50040    1.000
    O7       O        0.95390    0.67780    0.40210    1.000
    O8       O        0.99100    0.80130    0.37310    1.000
    O9       O        0.04690    0.82350    0.51210    1.000
    O10      O        0.13920    0.75980    0.38900    1.000
    O11      O        0.09810    0.64400    0.36760    1.000
    O12      O        0.98090    0.71890    0.54630    1.000
    Cu3      Cu       0.49873    0.90556    0.65196    1.000
    C7       C        0.50770    0.76370    0.59100    1.000
    C8       C        0.58640    0.78980    0.61470    1.000
    C9       C        0.51290    0.74230    0.49960    1.000
    O13      O        0.45390    0.82220    0.59790    1.000
    O14      O        0.49100    0.69870    0.62690    1.000
    O15      O        0.54690    0.67650    0.48790    1.000
    O16      O        0.63920    0.74020    0.61100    1.000
    O17      O        0.59810    0.85600    0.63240    1.000
    O18      O        0.48090    0.78110    0.45370    1.000
    Cu4      Cu       0.00127    0.09444    0.15196    1.000
    C10      C        0.99230    0.23630    0.09100    1.000
    C11      C        0.91360    0.21020    0.11470    1.000
    C12      C        0.98710    0.25770    0.99960    1.000
    O19      O        0.04610    0.17780    0.09790    1.000
    O20      O        0.00900    0.30130    0.12690    1.000
    O21      O        0.95310    0.32350    0.98790    1.000
    O22      O        0.86080    0.25980    0.11100    1.000
    O23      O        0.90190    0.14400    0.13240    1.000
    O24      O        0.01910    0.21890    0.95370    1.000
    Cu5      Cu       0.84804    0.50127    0.40556    1.000
    C13      C        0.90900    0.49230    0.26370    1.000
    C14      C        0.88530    0.41360    0.28980    1.000
    C15      C        0.00040    0.48710    0.24230    1.000
    O25      O        0.90210    0.54610    0.32220    1.000
    O26      O        0.87310    0.50900    0.19870    1.000
    O27      O        0.01210    0.45310    0.17650    1.000
    O28      O        0.88900    0.36080    0.24020    1.000
    O29      O        0.86760    0.40190    0.35600    1.000
    O30      O        0.04630    0.51910    0.28110    1.000
    Cu6      Cu       0.34804    0.99873    0.59444    1.000
    C16      C        0.40900    0.00770    0.73630    1.000
    C17      C        0.38530    0.08640    0.71020    1.000
    C18      C        0.50040    0.01290    0.75770    1.000
    O31      O        0.40210    0.95390    0.67780    1.000
    O32      O        0.37310    0.99100    0.80130    1.000
    O33      O        0.51210    0.04690    0.82350    1.000
    O34      O        0.38900    0.13920    0.75980    1.000
    O35      O        0.36760    0.09810    0.64400    1.000
    O36      O        0.54630    0.98090    0.71890    1.000
    Cu7      Cu       0.65196    0.49873    0.90556    1.000
    C19      C        0.59100    0.50770    0.76370    1.000
    C20      C        0.61470    0.58640    0.78980    1.000
    C21      C        0.49960    0.51290    0.74230    1.000
    O37      O        0.59790    0.45390    0.82220    1.000
    O38      O        0.62690    0.49100    0.69870    1.000
    O39      O        0.48790    0.54690    0.67650    1.000
    O40      O        0.61100    0.63920    0.74020    1.000
    O41      O        0.63240    0.59810    0.85600    1.000
    O42      O        0.45370    0.48090    0.78110    1.000
    Cu8      Cu       0.15196    0.00127    0.09444    1.000
    C22      C        0.09100    0.99230    0.23630    1.000
    C23      C        0.11470    0.91360    0.21020    1.000
    C24      C        0.99960    0.98710    0.25770    1.000
    O43      O        0.09790    0.04610    0.17780    1.000
    O44      O        0.12690    0.00900    0.30130    1.000
    O45      O        0.98790    0.95310    0.32350    1.000
    O46      O        0.11100    0.86080    0.25980    1.000
    O47      O        0.13240    0.90190    0.14400    1.000
    O48      O        0.95370    0.01910    0.21890    1.000
    Cu9      Cu       0.40556    0.84804    0.50127    1.000
    C25      C        0.26370    0.90900    0.49230    1.000
    C26      C        0.28980    0.88530    0.41360    1.000
    C27      C        0.24230    0.00040    0.48710    1.000
    O49      O        0.32220    0.90210    0.54610    1.000
    O50      O        0.19870    0.87310    0.50900    1.000
    O51      O        0.17650    0.01210    0.45310    1.000
    O52      O        0.24020    0.88900    0.36080    1.000
    O53      O        0.35600    0.86760    0.40190    1.000
    O54      O        0.28110    0.04630    0.51910    1.000
    Cu10     Cu       0.59444    0.34804    0.99873    1.000
    C28      C        0.73630    0.40900    0.00770    1.000
    C29      C        0.71020    0.38530    0.08640    1.000
    C30      C        0.75770    0.50040    0.01290    1.000
    O55      O        0.67780    0.40210    0.95390    1.000
    O56      O        0.80130    0.37310    0.99100    1.000
    O57      O        0.82350    0.51210    0.04690    1.000
    O58      O        0.75980    0.38900    0.13920    1.000
    O59      O        0.64400    0.36760    0.09810    1.000
    O60      O        0.71890    0.54630    0.98090    1.000
    Cu11     Cu       0.90556    0.65196    0.49873    1.000
    C31      C        0.76370    0.59100    0.50770    1.000
    C32      C        0.78980    0.61470    0.58640    1.000
    C33      C        0.74230    0.49960    0.51290    1.000
    O61      O        0.82220    0.59790    0.45390    1.000
    O62      O        0.69870    0.62690    0.49100    1.000
    O63      O        0.67650    0.48790    0.54690    1.000
    O64      O        0.74020    0.61100    0.63920    1.000
    O65      O        0.85600    0.63240    0.59810    1.000
    O66      O        0.78110    0.45370    0.48090    1.000
    Cu12     Cu       0.09444    0.15196    0.00127    1.000
    C34      C        0.23630    0.09100    0.99230    1.000
    C35      C        0.21020    0.11470    0.91360    1.000
    C36      C        0.25770    0.99960    0.98710    1.000
    O67      O        0.17780    0.09790    0.04610    1.000
    O68      O        0.30130    0.12690    0.00900    1.000
    O69      O        0.32350    0.98790    0.95310    1.000
    O70      O        0.25980    0.11100    0.86080    1.000
    O71      O        0.14400    0.13240    0.90190    1.000
    O72      O        0.21890    0.95370    0.01910    1.000
    Pr1      Pr       0.39864    0.10136    0.89864    1.000
    Pr2      Pr       0.10136    0.89864    0.39864    1.000
    Pr3      Pr       0.60136    0.60136    0.60136    1.000
    Pr4      Pr       0.89864    0.39864    0.10136    1.000
