# CIF file generated by openbabel 3.1.0, see https://openbabel.org
data_I
_chemical_name_common 'image0'
_cell_length_a 18.5486
_cell_length_b 18.5486
_cell_length_c 9.8538
_cell_angle_alpha 90
_cell_angle_beta 90
_cell_angle_gamma 120
_space_group_name_H-M_alt 'P 1'
_space_group_name_Hall 'P 1'
loop_
    _symmetry_equiv_pos_as_xyz
    x,y,z
loop_
    _atom_site_label
    _atom_site_type_symbol
    _atom_site_fract_x
    _atom_site_fract_y
    _atom_site_fract_z
    _atom_site_occupancy
    C1       C        0.37299    0.21578    0.33107    1.000
    H1       H        0.40550    0.21650    0.25890    1.000
    N1       N        0.43010    0.21940    0.23510    1.000
    H2       H        0.45960    0.26460    0.19000    1.000
    H3       H        0.43560    0.17650    0.22080    1.000
    N2       N        0.35947    0.27741    0.36023    1.000
    C2       C        0.03966    0.54911    0.66440    1.000
    H4       H        0.07217    0.54983    0.59223    1.000
    N3       N        0.09677    0.55273    0.56843    1.000
    H5       H        0.12627    0.59793    0.52333    1.000
    H6       H        0.10227    0.50983    0.55413    1.000
    N4       N        0.02614    0.61074    0.69356    1.000
    C3       C        0.70632    0.88245    0.99774    1.000
    H7       H        0.73883    0.88317    0.92557    1.000
    N5       N        0.76343    0.88607    0.90177    1.000
    H8       H        0.79293    0.93127    0.85667    1.000
    H9       H        0.76893    0.84317    0.88747    1.000
    N6       N        0.69280    0.94408    0.02690    1.000
    C4       C        0.78422    0.15721    0.33107    1.000
    H10      H        0.78350    0.18900    0.25890    1.000
    N7       N        0.78060    0.21070    0.23510    1.000
    H11      H        0.73540    0.19500    0.19000    1.000
    H12      H        0.82350    0.25910    0.22080    1.000
    N8       N        0.72259    0.08206    0.36023    1.000
    C5       C        0.45089    0.49054    0.66440    1.000
    H13      H        0.45017    0.52233    0.59223    1.000
    N9       N        0.44727    0.54403    0.56843    1.000
    H14      H        0.40207    0.52833    0.52333    1.000
    H15      H        0.49017    0.59243    0.55413    1.000
    N10      N        0.38926    0.41539    0.69356    1.000
    C6       C        0.11755    0.82388    0.99774    1.000
    H16      H        0.11683    0.85567    0.92557    1.000
    N11      N        0.11393    0.87737    0.90177    1.000
    H17      H        0.06873    0.86167    0.85667    1.000
    H18      H        0.15683    0.92577    0.88747    1.000
    N12      N        0.05592    0.74873    0.02690    1.000
    C7       C        0.84279    0.62701    0.33107    1.000
    H19      H        0.81100    0.59450    0.25890    1.000
    N13      N        0.78930    0.56990    0.23510    1.000
    H20      H        0.80500    0.54040    0.19000    1.000
    H21      H        0.74090    0.56440    0.22080    1.000
    N14      N        0.91794    0.64053    0.36023    1.000
    C8       C        0.50946    0.96034    0.66440    1.000
    H22      H        0.47767    0.92783    0.59223    1.000
    N15      N        0.45597    0.90323    0.56843    1.000
    H23      H        0.47167    0.87373    0.52333    1.000
    H24      H        0.40757    0.89773    0.55413    1.000
    N16      N        0.58461    0.97386    0.69356    1.000
    C9       C        0.17612    0.29368    0.99774    1.000
    H25      H        0.14433    0.26117    0.92557    1.000
    N17      N        0.12263    0.23657    0.90177    1.000
    H26      H        0.13833    0.20707    0.85667    1.000
    H27      H        0.07423    0.23107    0.88747    1.000
    N18      N        0.25127    0.30720    0.02690    1.000
    C10      C        0.21578    0.37299    0.16893    1.000
    H28      H        0.21650    0.40550    0.24110    1.000
    N19      N        0.21940    0.43010    0.26490    1.000
    H29      H        0.26460    0.45960    0.31000    1.000
    H30      H        0.17650    0.43560    0.27920    1.000
    N20      N        0.27741    0.35947    0.13977    1.000
    C11      C        0.88245    0.70632    0.50226    1.000
    H31      H        0.88317    0.73883    0.57443    1.000
    N21      N        0.88607    0.76343    0.59823    1.000
    H32      H        0.93127    0.79293    0.64333    1.000
    H33      H        0.84317    0.76893    0.61253    1.000
    N22      N        0.94408    0.69280    0.47310    1.000
    C12      C        0.54911    0.03966    0.83560    1.000
    H34      H        0.54983    0.07217    0.90777    1.000
    N23      N        0.55273    0.09677    0.93157    1.000
    H35      H        0.59793    0.12627    0.97667    1.000
    H36      H        0.50983    0.10227    0.94587    1.000
    N24      N        0.61074    0.02614    0.80644    1.000
    C13      C        0.15721    0.78422    0.16893    1.000
    H37      H        0.18900    0.78350    0.24110    1.000
    N25      N        0.21070    0.78060    0.26490    1.000
    H38      H        0.19500    0.73540    0.31000    1.000
    H39      H        0.25910    0.82350    0.27920    1.000
    N26      N        0.08206    0.72259    0.13977    1.000
    C14      C        0.82388    0.11755    0.50226    1.000
    H40      H        0.85567    0.11683    0.57443    1.000
    N27      N        0.87737    0.11393    0.59823    1.000
    H41      H        0.86167    0.06873    0.64333    1.000
    H42      H        0.92577    0.15683    0.61253    1.000
    N28      N        0.74873    0.05592    0.47310    1.000
    C15      C        0.49054    0.45089    0.83560    1.000
    H43      H        0.52233    0.45017    0.90777    1.000
    N29      N        0.54403    0.44727    0.93157    1.000
    H44      H        0.52833    0.40207    0.97667    1.000
    H45      H        0.59243    0.49017    0.94587    1.000
    N30      N        0.41539    0.38926    0.80644    1.000
    C16      C        0.62701    0.84279    0.16893    1.000
    H46      H        0.59450    0.81100    0.24110    1.000
    N31      N        0.56990    0.78930    0.26490    1.000
    H47      H        0.54040    0.80500    0.31000    1.000
    H48      H        0.56440    0.74090    0.27920    1.000
    N32      N        0.64053    0.91794    0.13977    1.000
    C17      C        0.29368    0.17612    0.50226    1.000
    H49      H        0.26117    0.14433    0.57443    1.000
    N33      N        0.23657    0.12263    0.59823    1.000
    H50      H        0.20707    0.13833    0.64333    1.000
    H51      H        0.23107    0.07423    0.61253    1.000
    N34      N        0.30720    0.25127    0.47310    1.000
    C18      C        0.96034    0.50946    0.83560    1.000
    H52      H        0.92783    0.47767    0.90777    1.000
    N35      N        0.90323    0.45597    0.93157    1.000
    H53      H        0.87373    0.47167    0.97667    1.000
    H54      H        0.89773    0.40757    0.94587    1.000
    N36      N        0.97386    0.58461    0.80644    1.000
    C19      C        0.62701    0.78422    0.66893    1.000
    H55      H        0.59450    0.78350    0.74110    1.000
    N37      N        0.56990    0.78060    0.76490    1.000
    H56      H        0.54040    0.73540    0.81000    1.000
    H57      H        0.56440    0.82350    0.77920    1.000
    N38      N        0.64053    0.72259    0.63977    1.000
    C20      C        0.29368    0.11755    0.00226    1.000
    H58      H        0.26117    0.11683    0.07443    1.000
    N39      N        0.23657    0.11393    0.09823    1.000
    H59      H        0.20707    0.06873    0.14333    1.000
    H60      H        0.23107    0.15683    0.11253    1.000
    N40      N        0.30720    0.05592    0.97310    1.000
    C21      C        0.96034    0.45089    0.33560    1.000
    H61      H        0.92783    0.45017    0.40777    1.000
    N41      N        0.90323    0.44727    0.43157    1.000
    H62      H        0.87373    0.40207    0.47667    1.000
    H63      H        0.89773    0.49017    0.44587    1.000
    N42      N        0.97386    0.38926    0.30644    1.000
    C22      C        0.21578    0.84279    0.66893    1.000
    H64      H        0.21650    0.81100    0.74110    1.000
    N43      N        0.21940    0.78930    0.76490    1.000
    H65      H        0.26460    0.80500    0.81000    1.000
    H66      H        0.17650    0.74090    0.77920    1.000
    N44      N        0.27741    0.91794    0.63977    1.000
    C23      C        0.88245    0.17612    0.00226    1.000
    H67      H        0.88317    0.14433    0.07443    1.000
    N45      N        0.88607    0.12263    0.09823    1.000
    H68      H        0.93127    0.13833    0.14333    1.000
    H69      H        0.84317    0.07423    0.11253    1.000
    N46      N        0.94408    0.25127    0.97310    1.000
    C24      C        0.54911    0.50946    0.33560    1.000
    H70      H        0.54983    0.47767    0.40777    1.000
    N47      N        0.55273    0.45597    0.43157    1.000
    H71      H        0.59793    0.47167    0.47667    1.000
    H72      H        0.50983    0.40757    0.44587    1.000
    N48      N        0.61074    0.58461    0.30644    1.000
    C25      C        0.15721    0.37299    0.66893    1.000
    H73      H        0.18900    0.40550    0.74110    1.000
    N49      N        0.21070    0.43010    0.76490    1.000
    H74      H        0.19500    0.45960    0.81000    1.000
    H75      H        0.25910    0.43560    0.77920    1.000
    N50      N        0.08206    0.35947    0.63977    1.000
    C26      C        0.82388    0.70632    0.00226    1.000
    H76      H        0.85567    0.73883    0.07443    1.000
    N51      N        0.87737    0.76343    0.09823    1.000
    H77      H        0.86167    0.79293    0.14333    1.000
    H78      H        0.92577    0.76893    0.11253    1.000
    N52      N        0.74873    0.69280    0.97310    1.000
    C27      C        0.49054    0.03966    0.33560    1.000
    H79      H        0.52233    0.07217    0.40777    1.000
    N53      N        0.54403    0.09677    0.43157    1.000
    H80      H        0.52833    0.12627    0.47667    1.000
    H81      H        0.59243    0.10227    0.44587    1.000
    N54      N        0.41539    0.02614    0.30644    1.000
    C28      C        0.78422    0.62701    0.83107    1.000
    H82      H        0.78350    0.59450    0.75890    1.000
    N55      N        0.78060    0.56990    0.73510    1.000
    H83      H        0.73540    0.54040    0.69000    1.000
    H84      H        0.82350    0.56440    0.72080    1.000
    N56      N        0.72259    0.64053    0.86023    1.000
    C29      C        0.45089    0.96034    0.16440    1.000
    H85      H        0.45017    0.92783    0.09223    1.000
    N57      N        0.44727    0.90323    0.06843    1.000
    H86      H        0.40207    0.87373    0.02333    1.000
    H87      H        0.49017    0.89773    0.05413    1.000
    N58      N        0.38926    0.97386    0.19356    1.000
    C30      C        0.11755    0.29368    0.49774    1.000
    H88      H        0.11683    0.26117    0.42557    1.000
    N59      N        0.11393    0.23657    0.40177    1.000
    H89      H        0.06873    0.20707    0.35667    1.000
    H90      H        0.15683    0.23107    0.38747    1.000
    N60      N        0.05592    0.30720    0.52690    1.000
    C31      C        0.84279    0.21578    0.83107    1.000
    H91      H        0.81100    0.21650    0.75890    1.000
    N61      N        0.78930    0.21940    0.73510    1.000
    H92      H        0.80500    0.26460    0.69000    1.000
    H93      H        0.74090    0.17650    0.72080    1.000
    N62      N        0.91794    0.27741    0.86023    1.000
    C32      C        0.50946    0.54911    0.16440    1.000
    H94      H        0.47767    0.54983    0.09223    1.000
    N63      N        0.45597    0.55273    0.06843    1.000
    H95      H        0.47167    0.59793    0.02333    1.000
    H96      H        0.40757    0.50983    0.05413    1.000
    N64      N        0.58461    0.61074    0.19356    1.000
    C33      C        0.17612    0.88245    0.49774    1.000
    H97      H        0.14433    0.88317    0.42557    1.000
    N65      N        0.12263    0.88607    0.40177    1.000
    H98      H        0.13833    0.93127    0.35667    1.000
    H99      H        0.07423    0.84317    0.38747    1.000
    N66      N        0.25127    0.94408    0.52690    1.000
    C34      C        0.37299    0.15721    0.83107    1.000
    H100     H        0.40550    0.18900    0.75890    1.000
    N67      N        0.43010    0.21070    0.73510    1.000
    H101     H        0.45960    0.19500    0.69000    1.000
    H102     H        0.43560    0.25910    0.72080    1.000
    N68      N        0.35947    0.08206    0.86023    1.000
    C35      C        0.03966    0.49054    0.16440    1.000
    H103     H        0.07217    0.52233    0.09223    1.000
    N69      N        0.09677    0.54403    0.06843    1.000
    H104     H        0.12627    0.52833    0.02333    1.000
    H105     H        0.10227    0.59243    0.05413    1.000
    N70      N        0.02614    0.41539    0.19356    1.000
    C36      C        0.70632    0.82388    0.49774    1.000
    H106     H        0.73883    0.85567    0.42557    1.000
    N71      N        0.76343    0.87737    0.40177    1.000
    H107     H        0.79293    0.86167    0.35667    1.000
    H108     H        0.76893    0.92577    0.38747    1.000
    N72      N        0.69280    0.74873    0.52690    1.000
    Zn1      Zn       0.37641    0.37641    0.25000    1.000
    Zn2      Zn       0.04308    0.70975    0.58333    1.000
    Zn3      Zn       0.70975    0.04308    0.91667    1.000
    Zn4      Zn       0.62359    0.00000    0.25000    1.000
    Zn5      Zn       0.29025    0.33333    0.58333    1.000
    Zn6      Zn       0.95692    0.66667    0.91667    1.000
    Zn7      Zn       0.00000    0.62359    0.25000    1.000
    Zn8      Zn       0.66667    0.95692    0.58333    1.000
    Zn9      Zn       0.33333    0.29025    0.91667    1.000
    Zn10     Zn       0.62359    0.62359    0.75000    1.000
    Zn11     Zn       0.29025    0.95692    0.08333    1.000
    Zn12     Zn       0.95692    0.29025    0.41667    1.000
    Zn13     Zn       0.37641    0.00000    0.75000    1.000
    Zn14     Zn       0.04308    0.33333    0.08333    1.000
    Zn15     Zn       0.70975    0.66667    0.41667    1.000
    Zn16     Zn       0.00000    0.37641    0.75000    1.000
    Zn17     Zn       0.66667    0.70975    0.08333    1.000
    Zn18     Zn       0.33333    0.04308    0.41667    1.000
    F1       F        0.41214    0.33333    0.08333    1.000
    F2       F        0.66667    0.07880    0.08333    1.000
    F3       F        0.33333    0.41214    0.41667    1.000
    F4       F        0.92120    0.58786    0.08333    1.000
    F5       F        0.25453    0.25453    0.75000    1.000
    F6       F        0.00000    0.74547    0.75000    1.000
    F7       F        0.07880    0.66667    0.41667    1.000
    F8       F        0.74547    0.00000    0.75000    1.000
    F9       F        0.58786    0.92120    0.41667    1.000
    F10      F        0.58786    0.66667    0.91667    1.000
    F11      F        0.25453    0.00000    0.25000    1.000
    F12      F        0.92120    0.33333    0.58333    1.000
    F13      F        0.33333    0.92120    0.91667    1.000
    F14      F        0.00000    0.25453    0.25000    1.000
    F15      F        0.07880    0.41214    0.91667    1.000
    F16      F        0.74547    0.74547    0.25000    1.000
    F17      F        0.66667    0.58786    0.58333    1.000
    F18      F        0.41214    0.07880    0.58333    1.000
    N73      N        0.33333    0.15071    0.41667    1.000
    N74      N        0.00000    0.48404    0.75000    1.000
    N75      N        0.84929    0.18263    0.41667    1.000
    N76      N        0.51596    0.51596    0.75000    1.000
    N77      N        0.81737    0.66667    0.41667    1.000
    N78      N        0.48404    0.00000    0.75000    1.000
    N79      N        0.15071    0.33333    0.08333    1.000
    N80      N        0.18263    0.84929    0.08333    1.000
    N81      N        0.66667    0.81737    0.08333    1.000
    N82      N        0.66667    0.84929    0.58333    1.000
    N83      N        0.15071    0.81737    0.58333    1.000
    N84      N        0.18263    0.33333    0.58333    1.000
    N85      N        0.84929    0.66667    0.91667    1.000
    N86      N        0.51596    0.00000    0.25000    1.000
    N87      N        0.81737    0.15071    0.91667    1.000
    N88      N        0.48404    0.48404    0.25000    1.000
    N89      N        0.33333    0.18263    0.91667    1.000
    N90      N        0.00000    0.51596    0.25000    1.000
