# CIF file generated by openbabel 3.1.0, see https://openbabel.org
data_I
_chemical_name_common 'image0'
_cell_length_a 44.482
_cell_length_b 44.482
_cell_length_c 21.283
_cell_angle_alpha 90
_cell_angle_beta 90
_cell_angle_gamma 120
_space_group_name_H-M_alt 'P 1'
_space_group_name_Hall 'P 1'
loop_
    _symmetry_equiv_pos_as_xyz
    x,y,z
loop_
    _atom_site_label
    _atom_site_type_symbol
    _atom_site_fract_x
    _atom_site_fract_y
    _atom_site_fract_z
    _atom_site_occupancy
    Cu1      Cu       0.74058    0.27966    0.41705    1.000
    Cu2      Cu       0.82707    0.24940    0.49119    1.000
    Cu3      Cu       0.80143    0.16325    0.64875    1.000
    Cu4      Cu       0.70941    0.04962    0.58363    1.000
    Cu5      Cu       0.64322    0.02618    0.38581    1.000
    Cu6      Cu       0.58364    0.08908    0.32132    1.000
    Cu7      Cu       0.61310    0.20552    0.39355    1.000
    Cu8      Cu       0.95062    0.31021    0.42489    1.000
    Cu9      Cu       0.05021    0.34184    0.55979    1.000
    Cu10     Cu       0.49493    0.02340    0.15830    1.000
    C1       C        0.77430    0.26280    0.42710    1.000
    N1       N        0.79230    0.25870    0.46710    1.000
    C2       C        0.81400    0.22420    0.57610    1.000
    N2       N        0.81460    0.20070    0.59440    1.000
    N3       N        0.76310    0.12040    0.62590    1.000
    C3       C        0.75070    0.09070    0.60480    1.000
    C4       C        0.69120    0.04470    0.50490    1.000
    N4       N        0.67580    0.04050    0.45660    1.000
    N5       N        0.62190    0.04660    0.36660    1.000
    C5       C        0.60480    0.05940    0.35180    1.000
    C6       C        0.59170    0.13160    0.36720    1.000
    N6       N        0.59990    0.16110    0.36040    1.000
    N7       N        0.66110    0.23550    0.38530    1.000
    C7       C        0.69090    0.25110    0.40110    1.000
    N8       N        0.87300    0.27260    0.46620    1.000
    C8       C        0.89970    0.28650    0.45150    1.000
    C9       C        0.98610    0.31570    0.47200    1.000
    N9       N        0.00260    0.31320    0.49710    1.000
    C10      C        0.96750    0.34530    0.30160    1.000
    N10      N        0.96100    0.33080    0.34700    1.000
    N11      N        0.76290    0.32970    0.38740    1.000
    C11      C        0.77550    0.35980    0.38240    1.000
    N12      N        0.55340    0.06760    0.26580    1.000
    C12      C        0.53780    0.05910    0.22230    1.000
    C13      C        0.83750    0.15760    0.74460    1.000
    N13      N        0.82350    0.16050    0.70170    1.000
    C14      C        0.09880    0.35800    0.53310    1.000
    N14      N        0.12190    0.34120    0.52350    1.000
    C15      C        0.68250    0.98610    0.66570    1.000
    N15      N        0.69120    0.00720    0.63860    1.000
    Cu11     Cu       0.40725    0.61299    0.75038    1.000
    Cu12     Cu       0.49374    0.58273    0.82452    1.000
    Cu13     Cu       0.46810    0.49658    0.98208    1.000
    Cu14     Cu       0.37608    0.38295    0.91696    1.000
    Cu15     Cu       0.30989    0.35951    0.71914    1.000
    Cu16     Cu       0.25031    0.42241    0.65465    1.000
    Cu17     Cu       0.27977    0.53885    0.72688    1.000
    Cu18     Cu       0.61729    0.64354    0.75822    1.000
    Cu19     Cu       0.71688    0.67517    0.89312    1.000
    Cu20     Cu       0.16160    0.35673    0.49163    1.000
    C16      C        0.44097    0.59613    0.76043    1.000
    N16      N        0.45897    0.59203    0.80043    1.000
    C17      C        0.48067    0.55753    0.90943    1.000
    N17      N        0.48127    0.53403    0.92773    1.000
    N18      N        0.42977    0.45373    0.95923    1.000
    C18      C        0.41737    0.42403    0.93813    1.000
    C19      C        0.35787    0.37803    0.83823    1.000
    N19      N        0.34247    0.37383    0.78993    1.000
    N20      N        0.28857    0.37993    0.69993    1.000
    C20      C        0.27147    0.39273    0.68513    1.000
    C21      C        0.25837    0.46493    0.70053    1.000
    N21      N        0.26657    0.49443    0.69373    1.000
    N22      N        0.32777    0.56883    0.71863    1.000
    C22      C        0.35757    0.58443    0.73443    1.000
    N23      N        0.53967    0.60593    0.79953    1.000
    C23      C        0.56637    0.61983    0.78483    1.000
    C24      C        0.65277    0.64903    0.80533    1.000
    N24      N        0.66927    0.64653    0.83043    1.000
    C25      C        0.63417    0.67863    0.63493    1.000
    N25      N        0.62767    0.66413    0.68033    1.000
    N26      N        0.42957    0.66303    0.72073    1.000
    C26      C        0.44217    0.69313    0.71573    1.000
    N27      N        0.22007    0.40093    0.59913    1.000
    C27      C        0.20447    0.39243    0.55563    1.000
    C28      C        0.50417    0.49093    0.07793    1.000
    N28      N        0.49017    0.49383    0.03503    1.000
    C29      C        0.76547    0.69133    0.86643    1.000
    N29      N        0.78857    0.67453    0.85683    1.000
    C30      C        0.34917    0.31943    0.99903    1.000
    N30      N        0.35787    0.34053    0.97193    1.000
    Cu21     Cu       0.07391    0.94633    0.08372    1.000
    Cu22     Cu       0.16040    0.91607    0.15786    1.000
    Cu23     Cu       0.13476    0.82992    0.31542    1.000
    Cu24     Cu       0.04274    0.71629    0.25030    1.000
    Cu25     Cu       0.97655    0.69285    0.05248    1.000
    Cu26     Cu       0.91697    0.75575    0.98799    1.000
    Cu27     Cu       0.94643    0.87219    0.06022    1.000
    Cu28     Cu       0.28395    0.97688    0.09156    1.000
    Cu29     Cu       0.38354    0.00851    0.22646    1.000
    Cu30     Cu       0.82826    0.69007    0.82497    1.000
    C31      C        0.10763    0.92947    0.09377    1.000
    N31      N        0.12563    0.92537    0.13377    1.000
    C32      C        0.14733    0.89087    0.24277    1.000
    N32      N        0.14793    0.86737    0.26107    1.000
    N33      N        0.09643    0.78707    0.29257    1.000
    C33      C        0.08403    0.75737    0.27147    1.000
    C34      C        0.02453    0.71137    0.17157    1.000
    N34      N        0.00913    0.70717    0.12327    1.000
    N35      N        0.95523    0.71327    0.03327    1.000
    C35      C        0.93813    0.72607    0.01847    1.000
    C36      C        0.92503    0.79827    0.03387    1.000
    N36      N        0.93323    0.82777    0.02707    1.000
    N37      N        0.99443    0.90217    0.05197    1.000
    C37      C        0.02423    0.91777    0.06777    1.000
    N38      N        0.20633    0.93927    0.13287    1.000
    C38      C        0.23303    0.95317    0.11817    1.000
    C39      C        0.31943    0.98237    0.13867    1.000
    N39      N        0.33593    0.97987    0.16377    1.000
    C40      C        0.30083    0.01197    0.96827    1.000
    N40      N        0.29433    0.99747    0.01367    1.000
    N41      N        0.09623    0.99637    0.05407    1.000
    C41      C        0.10883    0.02647    0.04907    1.000
    N42      N        0.88673    0.73427    0.93247    1.000
    C42      C        0.87113    0.72577    0.88897    1.000
    C43      C        0.17083    0.82427    0.41127    1.000
    N43      N        0.15683    0.82717    0.36837    1.000
    C44      C        0.43213    0.02467    0.19977    1.000
    N44      N        0.45523    0.00787    0.19017    1.000
    C45      C        0.01583    0.65277    0.33237    1.000
    N45      N        0.02453    0.67387    0.30527    1.000
    Cu31     Cu       0.72034    0.46092    0.41705    1.000
    Cu32     Cu       0.75060    0.57767    0.49119    1.000
    Cu33     Cu       0.83675    0.63818    0.64875    1.000
    Cu34     Cu       0.95038    0.65979    0.58363    1.000
    Cu35     Cu       0.97382    0.61704    0.38581    1.000
    Cu36     Cu       0.91092    0.49456    0.32132    1.000
    Cu37     Cu       0.79448    0.40758    0.39355    1.000
    Cu38     Cu       0.68979    0.64041    0.42489    1.000
    Cu39     Cu       0.65816    0.70837    0.55979    1.000
    Cu40     Cu       0.97660    0.47153    0.15830    1.000
    C46      C        0.73720    0.51150    0.42710    1.000
    N46      N        0.74130    0.53360    0.46710    1.000
    C47      C        0.77580    0.58980    0.57610    1.000
    N47      N        0.79930    0.61390    0.59440    1.000
    N48      N        0.87960    0.64270    0.62590    1.000
    C48      C        0.90930    0.66000    0.60480    1.000
    C49      C        0.95530    0.64650    0.50490    1.000
    N49      N        0.95950    0.63530    0.45660    1.000
    N50      N        0.95340    0.57530    0.36660    1.000
    C50      C        0.94060    0.54540    0.35180    1.000
    C51      C        0.86840    0.46010    0.36720    1.000
    N51      N        0.83890    0.43880    0.36040    1.000
    N52      N        0.76450    0.42560    0.38530    1.000
    C52      C        0.74890    0.43980    0.40110    1.000
    N53      N        0.72740    0.60040    0.46620    1.000
    C53      C        0.71350    0.61320    0.45150    1.000
    C54      C        0.68430    0.67040    0.47200    1.000
    N54      N        0.68680    0.68940    0.49710    1.000
    C55      C        0.65470    0.62220    0.30160    1.000
    N55      N        0.66920    0.63020    0.34700    1.000
    N56      N        0.67030    0.43320    0.38740    1.000
    C56      C        0.64020    0.41570    0.38240    1.000
    N57      N        0.93240    0.48580    0.26580    1.000
    C57      C        0.94090    0.47870    0.22230    1.000
    C58      C        0.84240    0.67990    0.74460    1.000
    N58      N        0.83950    0.66300    0.70170    1.000
    C59      C        0.64200    0.74080    0.53310    1.000
    N59      N        0.65880    0.78070    0.52350    1.000
    C60      C        0.01390    0.69640    0.66570    1.000
    N60      N        0.99280    0.68400    0.63860    1.000
    Cu41     Cu       0.38701    0.79425    0.75038    1.000
    Cu42     Cu       0.41727    0.91100    0.82452    1.000
    Cu43     Cu       0.50342    0.97151    0.98208    1.000
    Cu44     Cu       0.61705    0.99312    0.91696    1.000
    Cu45     Cu       0.64049    0.95037    0.71914    1.000
    Cu46     Cu       0.57759    0.82789    0.65465    1.000
    Cu47     Cu       0.46115    0.74091    0.72688    1.000
    Cu48     Cu       0.35646    0.97374    0.75822    1.000
    Cu49     Cu       0.32483    0.04170    0.89312    1.000
    Cu50     Cu       0.64327    0.80486    0.49163    1.000
    C61      C        0.40387    0.84483    0.76043    1.000
    N61      N        0.40797    0.86693    0.80043    1.000
    C62      C        0.44247    0.92313    0.90943    1.000
    N62      N        0.46597    0.94723    0.92773    1.000
    N63      N        0.54627    0.97603    0.95923    1.000
    C63      C        0.57597    0.99333    0.93813    1.000
    C64      C        0.62197    0.97983    0.83823    1.000
    N64      N        0.62617    0.96863    0.78993    1.000
    N65      N        0.62007    0.90863    0.69993    1.000
    C65      C        0.60727    0.87873    0.68513    1.000
    C66      C        0.53507    0.79343    0.70053    1.000
    N66      N        0.50557    0.77213    0.69373    1.000
    N67      N        0.43117    0.75893    0.71863    1.000
    C67      C        0.41557    0.77313    0.73443    1.000
    N68      N        0.39407    0.93373    0.79953    1.000
    C68      C        0.38017    0.94653    0.78483    1.000
    C69      C        0.35097    0.00373    0.80533    1.000
    N69      N        0.35347    0.02273    0.83043    1.000
    C70      C        0.32137    0.95553    0.63493    1.000
    N70      N        0.33587    0.96353    0.68033    1.000
    N71      N        0.33697    0.76653    0.72073    1.000
    C71      C        0.30687    0.74903    0.71573    1.000
    N72      N        0.59907    0.81913    0.59913    1.000
    C72      C        0.60757    0.81203    0.55563    1.000
    C73      C        0.50907    0.01323    0.07793    1.000
    N73      N        0.50617    0.99633    0.03503    1.000
    C74      C        0.30867    0.07413    0.86643    1.000
    N74      N        0.32547    0.11403    0.85683    1.000
    C75      C        0.68057    0.02973    0.99903    1.000
    N75      N        0.65947    0.01733    0.97193    1.000
    Cu51     Cu       0.05367    0.12759    0.08372    1.000
    Cu52     Cu       0.08393    0.24434    0.15786    1.000
    Cu53     Cu       0.17008    0.30485    0.31542    1.000
    Cu54     Cu       0.28371    0.32646    0.25030    1.000
    Cu55     Cu       0.30715    0.28371    0.05248    1.000
    Cu56     Cu       0.24425    0.16123    0.98799    1.000
    Cu57     Cu       0.12781    0.07425    0.06022    1.000
    Cu58     Cu       0.02312    0.30708    0.09156    1.000
    Cu59     Cu       0.99149    0.37504    0.22646    1.000
    Cu60     Cu       0.30993    0.13820    0.82497    1.000
    C76      C        0.07053    0.17817    0.09377    1.000
    N76      N        0.07463    0.20027    0.13377    1.000
    C77      C        0.10913    0.25647    0.24277    1.000
    N77      N        0.13263    0.28057    0.26107    1.000
    N78      N        0.21293    0.30937    0.29257    1.000
    C78      C        0.24263    0.32667    0.27147    1.000
    C79      C        0.28863    0.31317    0.17157    1.000
    N79      N        0.29283    0.30197    0.12327    1.000
    N80      N        0.28673    0.24197    0.03327    1.000
    C80      C        0.27393    0.21207    0.01847    1.000
    C81      C        0.20173    0.12677    0.03387    1.000
    N81      N        0.17223    0.10547    0.02707    1.000
    N82      N        0.09783    0.09227    0.05197    1.000
    C82      C        0.08223    0.10647    0.06777    1.000
    N83      N        0.06073    0.26707    0.13287    1.000
    C83      C        0.04683    0.27987    0.11817    1.000
    C84      C        0.01763    0.33707    0.13867    1.000
    N84      N        0.02013    0.35607    0.16377    1.000
    C85      C        0.98803    0.28887    0.96827    1.000
    N85      N        0.00253    0.29687    0.01367    1.000
    N86      N        0.00363    0.09987    0.05407    1.000
    C86      C        0.97353    0.08237    0.04907    1.000
    N87      N        0.26573    0.15247    0.93247    1.000
    C87      C        0.27423    0.14537    0.88897    1.000
    C88      C        0.17573    0.34657    0.41127    1.000
    N88      N        0.17283    0.32967    0.36837    1.000
    C89      C        0.97533    0.40747    0.19977    1.000
    N89      N        0.99213    0.44737    0.19017    1.000
    C90      C        0.34723    0.36307    0.33237    1.000
    N90      N        0.32613    0.35067    0.30527    1.000
    Cu61     Cu       0.53908    0.25942    0.41705    1.000
    Cu62     Cu       0.42233    0.17293    0.49119    1.000
    Cu63     Cu       0.36182    0.19857    0.64875    1.000
    Cu64     Cu       0.34021    0.29059    0.58363    1.000
    Cu65     Cu       0.38296    0.35678    0.38581    1.000
    Cu66     Cu       0.50544    0.41636    0.32132    1.000
    Cu67     Cu       0.59242    0.38690    0.39355    1.000
    Cu68     Cu       0.35959    0.04938    0.42489    1.000
    Cu69     Cu       0.29163    0.94979    0.55979    1.000
    Cu70     Cu       0.52847    0.50507    0.15830    1.000
    C91      C        0.48850    0.22570    0.42710    1.000
    N91      N        0.46640    0.20770    0.46710    1.000
    C92      C        0.41020    0.18600    0.57610    1.000
    N92      N        0.38610    0.18540    0.59440    1.000
    N93      N        0.35730    0.23690    0.62590    1.000
    C93      C        0.34000    0.24930    0.60480    1.000
    C94      C        0.35350    0.30880    0.50490    1.000
    N94      N        0.36470    0.32420    0.45660    1.000
    N95      N        0.42470    0.37810    0.36660    1.000
    C95      C        0.45460    0.39520    0.35180    1.000
    C96      C        0.53990    0.40830    0.36720    1.000
    N96      N        0.56120    0.40010    0.36040    1.000
    N97      N        0.57440    0.33890    0.38530    1.000
    C97      C        0.56020    0.30910    0.40110    1.000
    N98      N        0.39960    0.12700    0.46620    1.000
    C98      C        0.38680    0.10030    0.45150    1.000
    C99      C        0.32960    0.01390    0.47200    1.000
    N99      N        0.31060    0.99740    0.49710    1.000
    C100     C        0.37780    0.03250    0.30160    1.000
    N100     N        0.36980    0.03900    0.34700    1.000
    N101     N        0.56680    0.23710    0.38740    1.000
    C101     C        0.58430    0.22450    0.38240    1.000
    N102     N        0.51420    0.44660    0.26580    1.000
    C102     C        0.52130    0.46220    0.22230    1.000
    C103     C        0.32010    0.16250    0.74460    1.000
    N103     N        0.33700    0.17650    0.70170    1.000
    C104     C        0.25920    0.90120    0.53310    1.000
    N104     N        0.21930    0.87810    0.52350    1.000
    C105     C        0.30360    0.31750    0.66570    1.000
    N105     N        0.31600    0.30880    0.63860    1.000
    Cu71     Cu       0.20575    0.59275    0.75038    1.000
    Cu72     Cu       0.08900    0.50626    0.82452    1.000
    Cu73     Cu       0.02849    0.53190    0.98208    1.000
    Cu74     Cu       0.00688    0.62392    0.91696    1.000
    Cu75     Cu       0.04963    0.69011    0.71914    1.000
    Cu76     Cu       0.17211    0.74969    0.65465    1.000
    Cu77     Cu       0.25909    0.72023    0.72688    1.000
    Cu78     Cu       0.02626    0.38271    0.75822    1.000
    Cu79     Cu       0.95830    0.28312    0.89312    1.000
    Cu80     Cu       0.19514    0.83840    0.49163    1.000
    C106     C        0.15517    0.55903    0.76043    1.000
    N106     N        0.13307    0.54103    0.80043    1.000
    C107     C        0.07687    0.51933    0.90943    1.000
    N107     N        0.05277    0.51873    0.92773    1.000
    N108     N        0.02397    0.57023    0.95923    1.000
    C108     C        0.00667    0.58263    0.93813    1.000
    C109     C        0.02017    0.64213    0.83823    1.000
    N109     N        0.03137    0.65753    0.78993    1.000
    N110     N        0.09137    0.71143    0.69993    1.000
    C110     C        0.12127    0.72853    0.68513    1.000
    C111     C        0.20657    0.74163    0.70053    1.000
    N111     N        0.22787    0.73343    0.69373    1.000
    N112     N        0.24107    0.67223    0.71863    1.000
    C112     C        0.22687    0.64243    0.73443    1.000
    N113     N        0.06627    0.46033    0.79953    1.000
    C113     C        0.05347    0.43363    0.78483    1.000
    C114     C        0.99627    0.34723    0.80533    1.000
    N114     N        0.97727    0.33073    0.83043    1.000
    C115     C        0.04447    0.36583    0.63493    1.000
    N115     N        0.03647    0.37233    0.68033    1.000
    N116     N        0.23347    0.57043    0.72073    1.000
    C116     C        0.25097    0.55783    0.71573    1.000
    N117     N        0.18087    0.77993    0.59913    1.000
    C117     C        0.18797    0.79553    0.55563    1.000
    C118     C        0.98677    0.49583    0.07793    1.000
    N118     N        0.00367    0.50983    0.03503    1.000
    C119     C        0.92587    0.23453    0.86643    1.000
    N119     N        0.88597    0.21143    0.85683    1.000
    C120     C        0.97027    0.65083    0.99903    1.000
    N120     N        0.98267    0.64213    0.97193    1.000
    Cu81     Cu       0.87241    0.92609    0.08372    1.000
    Cu82     Cu       0.75566    0.83960    0.15786    1.000
    Cu83     Cu       0.69515    0.86524    0.31542    1.000
    Cu84     Cu       0.67354    0.95726    0.25030    1.000
    Cu85     Cu       0.71629    0.02345    0.05248    1.000
    Cu86     Cu       0.83877    0.08303    0.98799    1.000
    Cu87     Cu       0.92575    0.05357    0.06022    1.000
    Cu88     Cu       0.69292    0.71605    0.09156    1.000
    Cu89     Cu       0.62496    0.61646    0.22646    1.000
    Cu90     Cu       0.86180    0.17174    0.82497    1.000
    C121     C        0.82183    0.89237    0.09377    1.000
    N121     N        0.79973    0.87437    0.13377    1.000
    C122     C        0.74353    0.85267    0.24277    1.000
    N122     N        0.71943    0.85207    0.26107    1.000
    N123     N        0.69063    0.90357    0.29257    1.000
    C123     C        0.67333    0.91597    0.27147    1.000
    C124     C        0.68683    0.97547    0.17157    1.000
    N124     N        0.69803    0.99087    0.12327    1.000
    N125     N        0.75803    0.04477    0.03327    1.000
    C125     C        0.78793    0.06187    0.01847    1.000
    C126     C        0.87323    0.07497    0.03387    1.000
    N126     N        0.89453    0.06677    0.02707    1.000
    N127     N        0.90773    0.00557    0.05197    1.000
    C127     C        0.89353    0.97577    0.06777    1.000
    N128     N        0.73293    0.79367    0.13287    1.000
    C128     C        0.72013    0.76697    0.11817    1.000
    C129     C        0.66293    0.68057    0.13867    1.000
    N129     N        0.64393    0.66407    0.16377    1.000
    C130     C        0.71113    0.69917    0.96827    1.000
    N130     N        0.70313    0.70567    0.01367    1.000
    N131     N        0.90013    0.90377    0.05407    1.000
    C131     C        0.91763    0.89117    0.04907    1.000
    N132     N        0.84753    0.11327    0.93247    1.000
    C132     C        0.85463    0.12887    0.88897    1.000
    C133     C        0.65343    0.82917    0.41127    1.000
    N133     N        0.67033    0.84317    0.36837    1.000
    C134     C        0.59253    0.56787    0.19977    1.000
    N134     N        0.55263    0.54477    0.19017    1.000
    C135     C        0.63693    0.98417    0.33237    1.000
    N135     N        0.64933    0.97547    0.30527    1.000
