# CIF file generated by openbabel 3.1.0, see https://openbabel.org
data_I
_chemical_name_common 'image0'
_cell_length_a 13.0883
_cell_length_b 13.0883
_cell_length_c 26.7939
_cell_angle_alpha 90
_cell_angle_beta 90
_cell_angle_gamma 90
_space_group_name_H-M_alt 'P 1'
_space_group_name_Hall 'P 1'
loop_
    _symmetry_equiv_pos_as_xyz
    x,y,z
loop_
    _atom_site_label
    _atom_site_type_symbol
    _atom_site_fract_x
    _atom_site_fract_y
    _atom_site_fract_z
    _atom_site_occupancy
    N1       N        0.44990    0.90490    0.33688    1.000
    O1       O        0.28050    0.54320    0.58323    1.000
    N2       N        0.09920    0.45590    0.72918    1.000
    C1       C        0.38590    0.61760    0.46281    1.000
    H1       H        0.41410    0.58680    0.43470    1.000
    C2       C        0.35100    0.55570    0.50227    1.000
    C3       C        0.40620    0.78680    0.42098    1.000
    C4       C        0.37950    0.72290    0.46472    1.000
    C5       C        0.46400    0.74820    0.38184    1.000
    H2       H        0.48920    0.68180    0.38340    1.000
    C6       C        0.48440    0.80870    0.34031    1.000
    H3       H        0.52290    0.78170    0.31430    1.000
    C7       C        0.31600    0.60520    0.54613    1.000
    C8       C        0.34590    0.76770    0.50886    1.000
    H4       H        0.34430    0.83850    0.51130    1.000
    C9       C        0.37010    0.88410    0.41606    1.000
    H5       H        0.32950    0.91230    0.44100    1.000
    C10      C        0.39370    0.94180    0.37360    1.000
    H6       H        0.36900    0.00830    0.37120    1.000
    C11      C        0.13350    0.52610    0.69648    1.000
    H7       H        0.11000    0.59290    0.69930    1.000
    C12      C        0.20100    0.50350    0.65944    1.000
    C13      C        0.31490    0.71000    0.54902    1.000
    H8       H        0.29320    0.74200    0.57810    1.000
    C14      C        0.13020    0.35930    0.72410    1.000
    H9       H        0.10630    0.31020    0.74640    1.000
    C15      C        0.23840    0.58680    0.62570    1.000
    H10      H        0.18220    0.63120    0.61660    1.000
    H11      H        0.28950    0.62750    0.64280    1.000
    C16      C        0.19530    0.33080    0.68740    1.000
    H12      H        0.21440    0.26260    0.68460    1.000
    C17      C        0.23340    0.40070    0.65440    1.000
    H13      H        0.27900    0.38150    0.62940    1.000
    N3       N        0.55010    0.09510    0.33688    1.000
    O2       O        0.71950    0.45680    0.58323    1.000
    N4       N        0.90080    0.54410    0.72918    1.000
    C18      C        0.61410    0.38240    0.46281    1.000
    H14      H        0.58590    0.41320    0.43470    1.000
    C19      C        0.64900    0.44430    0.50227    1.000
    C20      C        0.59380    0.21320    0.42098    1.000
    C21      C        0.62050    0.27710    0.46472    1.000
    C22      C        0.53600    0.25180    0.38184    1.000
    H15      H        0.51080    0.31820    0.38340    1.000
    C23      C        0.51560    0.19130    0.34031    1.000
    H16      H        0.47710    0.21830    0.31430    1.000
    C24      C        0.68400    0.39480    0.54613    1.000
    C25      C        0.65410    0.23230    0.50886    1.000
    H17      H        0.65570    0.16150    0.51130    1.000
    C26      C        0.62990    0.11590    0.41606    1.000
    H18      H        0.67050    0.08770    0.44100    1.000
    C27      C        0.60630    0.05820    0.37360    1.000
    H19      H        0.63100    0.99170    0.37120    1.000
    C28      C        0.86650    0.47390    0.69648    1.000
    H20      H        0.89000    0.40710    0.69930    1.000
    C29      C        0.79900    0.49650    0.65944    1.000
    C30      C        0.68510    0.29000    0.54902    1.000
    H21      H        0.70680    0.25800    0.57810    1.000
    C31      C        0.86980    0.64070    0.72410    1.000
    H22      H        0.89370    0.68980    0.74640    1.000
    C32      C        0.76160    0.41320    0.62570    1.000
    H23      H        0.81780    0.36880    0.61660    1.000
    H24      H        0.71050    0.37250    0.64280    1.000
    C33      C        0.80470    0.66920    0.68740    1.000
    H25      H        0.78560    0.73740    0.68460    1.000
    C34      C        0.76660    0.59930    0.65440    1.000
    H26      H        0.72100    0.61850    0.62940    1.000
    N5       N        0.09510    0.44990    0.83688    1.000
    O3       O        0.45680    0.28050    0.08323    1.000
    N6       N        0.54410    0.09920    0.22918    1.000
    C35      C        0.38240    0.38590    0.96281    1.000
    H27      H        0.41320    0.41410    0.93470    1.000
    C36      C        0.44430    0.35100    0.00227    1.000
    C37      C        0.21320    0.40620    0.92098    1.000
    C38      C        0.27710    0.37950    0.96472    1.000
    C39      C        0.25180    0.46400    0.88184    1.000
    H28      H        0.31820    0.48920    0.88340    1.000
    C40      C        0.19130    0.48440    0.84031    1.000
    H29      H        0.21830    0.52290    0.81430    1.000
    C41      C        0.39480    0.31600    0.04613    1.000
    C42      C        0.23230    0.34590    0.00886    1.000
    H30      H        0.16150    0.34430    0.01130    1.000
    C43      C        0.11590    0.37010    0.91606    1.000
    H31      H        0.08770    0.32950    0.94100    1.000
    C44      C        0.05820    0.39370    0.87360    1.000
    H32      H        0.99170    0.36900    0.87120    1.000
    C45      C        0.47390    0.13350    0.19648    1.000
    H33      H        0.40710    0.11000    0.19930    1.000
    C46      C        0.49650    0.20100    0.15944    1.000
    C47      C        0.29000    0.31490    0.04902    1.000
    H34      H        0.25800    0.29320    0.07810    1.000
    C48      C        0.64070    0.13020    0.22410    1.000
    H35      H        0.68980    0.10630    0.24640    1.000
    C49      C        0.41320    0.23840    0.12570    1.000
    H36      H        0.36880    0.18220    0.11660    1.000
    H37      H        0.37250    0.28950    0.14280    1.000
    C50      C        0.66920    0.19530    0.18740    1.000
    H38      H        0.73740    0.21440    0.18460    1.000
    C51      C        0.59930    0.23340    0.15440    1.000
    H39      H        0.61850    0.27900    0.12940    1.000
    N7       N        0.90490    0.55010    0.83688    1.000
    O4       O        0.54320    0.71950    0.08323    1.000
    N8       N        0.45590    0.90080    0.22918    1.000
    C52      C        0.61760    0.61410    0.96281    1.000
    H40      H        0.58680    0.58590    0.93470    1.000
    C53      C        0.55570    0.64900    0.00227    1.000
    C54      C        0.78680    0.59380    0.92098    1.000
    C55      C        0.72290    0.62050    0.96472    1.000
    C56      C        0.74820    0.53600    0.88184    1.000
    H41      H        0.68180    0.51080    0.88340    1.000
    C57      C        0.80870    0.51560    0.84031    1.000
    H42      H        0.78170    0.47710    0.81430    1.000
    C58      C        0.60520    0.68400    0.04613    1.000
    C59      C        0.76770    0.65410    0.00886    1.000
    H43      H        0.83850    0.65570    0.01130    1.000
    C60      C        0.88410    0.62990    0.91606    1.000
    H44      H        0.91230    0.67050    0.94100    1.000
    C61      C        0.94180    0.60630    0.87360    1.000
    H45      H        0.00830    0.63100    0.87120    1.000
    C62      C        0.52610    0.86650    0.19648    1.000
    H46      H        0.59290    0.89000    0.19930    1.000
    C63      C        0.50350    0.79900    0.15944    1.000
    C64      C        0.71000    0.68510    0.04902    1.000
    H47      H        0.74200    0.70680    0.07810    1.000
    C65      C        0.35930    0.86980    0.22410    1.000
    H48      H        0.31020    0.89370    0.24640    1.000
    C66      C        0.58680    0.76160    0.12570    1.000
    H49      H        0.63120    0.81780    0.11660    1.000
    H50      H        0.62750    0.71050    0.14280    1.000
    C67      C        0.33080    0.80470    0.18740    1.000
    H51      H        0.26260    0.78560    0.18460    1.000
    C68      C        0.40070    0.76660    0.15440    1.000
    H52      H        0.38150    0.72100    0.12940    1.000
    N9       N        0.55010    0.90490    0.66312    1.000
    O5       O        0.71950    0.54320    0.41677    1.000
    N10      N        0.90080    0.45590    0.27082    1.000
    C69      C        0.61410    0.61760    0.53719    1.000
    H53      H        0.58590    0.58680    0.56530    1.000
    C70      C        0.64900    0.55570    0.49773    1.000
    C71      C        0.59380    0.78680    0.57902    1.000
    C72      C        0.62050    0.72290    0.53528    1.000
    C73      C        0.53600    0.74820    0.61816    1.000
    H54      H        0.51080    0.68180    0.61660    1.000
    C74      C        0.51560    0.80870    0.65969    1.000
    H55      H        0.47710    0.78170    0.68570    1.000
    C75      C        0.68400    0.60520    0.45387    1.000
    C76      C        0.65410    0.76770    0.49114    1.000
    H56      H        0.65570    0.83850    0.48870    1.000
    C77      C        0.62990    0.88410    0.58394    1.000
    H57      H        0.67050    0.91230    0.55900    1.000
    C78      C        0.60630    0.94180    0.62640    1.000
    H58      H        0.63100    0.00830    0.62880    1.000
    C79      C        0.86650    0.52610    0.30352    1.000
    H59      H        0.89000    0.59290    0.30070    1.000
    C80      C        0.79900    0.50350    0.34056    1.000
    C81      C        0.68510    0.71000    0.45098    1.000
    H60      H        0.70680    0.74200    0.42190    1.000
    C82      C        0.86980    0.35930    0.27590    1.000
    H61      H        0.89370    0.31020    0.25360    1.000
    C83      C        0.76160    0.58680    0.37430    1.000
    H62      H        0.81780    0.63120    0.38340    1.000
    H63      H        0.71050    0.62750    0.35720    1.000
    C84      C        0.80470    0.33080    0.31260    1.000
    H64      H        0.78560    0.26260    0.31540    1.000
    C85      C        0.76660    0.40070    0.34560    1.000
    H65      H        0.72100    0.38150    0.37060    1.000
    N11      N        0.44990    0.09510    0.66312    1.000
    O6       O        0.28050    0.45680    0.41677    1.000
    N12      N        0.09920    0.54410    0.27082    1.000
    C86      C        0.38590    0.38240    0.53719    1.000
    H66      H        0.41410    0.41320    0.56530    1.000
    C87      C        0.35100    0.44430    0.49773    1.000
    C88      C        0.40620    0.21320    0.57902    1.000
    C89      C        0.37950    0.27710    0.53528    1.000
    C90      C        0.46400    0.25180    0.61816    1.000
    H67      H        0.48920    0.31820    0.61660    1.000
    C91      C        0.48440    0.19130    0.65969    1.000
    H68      H        0.52290    0.21830    0.68570    1.000
    C92      C        0.31600    0.39480    0.45387    1.000
    C93      C        0.34590    0.23230    0.49114    1.000
    H69      H        0.34430    0.16150    0.48870    1.000
    C94      C        0.37010    0.11590    0.58394    1.000
    H70      H        0.32950    0.08770    0.55900    1.000
    C95      C        0.39370    0.05820    0.62640    1.000
    H71      H        0.36900    0.99170    0.62880    1.000
    C96      C        0.13350    0.47390    0.30352    1.000
    H72      H        0.11000    0.40710    0.30070    1.000
    C97      C        0.20100    0.49650    0.34056    1.000
    C98      C        0.31490    0.29000    0.45098    1.000
    H73      H        0.29320    0.25800    0.42190    1.000
    C99      C        0.13020    0.64070    0.27590    1.000
    H74      H        0.10630    0.68980    0.25360    1.000
    C100     C        0.23840    0.41320    0.37430    1.000
    H75      H        0.18220    0.36880    0.38340    1.000
    H76      H        0.28950    0.37250    0.35720    1.000
    C101     C        0.19530    0.66920    0.31260    1.000
    H77      H        0.21440    0.73740    0.31540    1.000
    C102     C        0.23340    0.59930    0.34560    1.000
    H78      H        0.27900    0.61850    0.37060    1.000
    N13      N        0.90490    0.44990    0.16312    1.000
    O7       O        0.54320    0.28050    0.91677    1.000
    N14      N        0.45590    0.09920    0.77082    1.000
    C103     C        0.61760    0.38590    0.03719    1.000
    H79      H        0.58680    0.41410    0.06530    1.000
    C104     C        0.55570    0.35100    0.99773    1.000
    C105     C        0.78680    0.40620    0.07902    1.000
    C106     C        0.72290    0.37950    0.03528    1.000
    C107     C        0.74820    0.46400    0.11816    1.000
    H80      H        0.68180    0.48920    0.11660    1.000
    C108     C        0.80870    0.48440    0.15969    1.000
    H81      H        0.78170    0.52290    0.18570    1.000
    C109     C        0.60520    0.31600    0.95387    1.000
    C110     C        0.76770    0.34590    0.99114    1.000
    H82      H        0.83850    0.34430    0.98870    1.000
    C111     C        0.88410    0.37010    0.08394    1.000
    H83      H        0.91230    0.32950    0.05900    1.000
    C112     C        0.94180    0.39370    0.12640    1.000
    H84      H        0.00830    0.36900    0.12880    1.000
    C113     C        0.52610    0.13350    0.80352    1.000
    H85      H        0.59290    0.11000    0.80070    1.000
    C114     C        0.50350    0.20100    0.84056    1.000
    C115     C        0.71000    0.31490    0.95098    1.000
    H86      H        0.74200    0.29320    0.92190    1.000
    C116     C        0.35930    0.13020    0.77590    1.000
    H87      H        0.31020    0.10630    0.75360    1.000
    C117     C        0.58680    0.23840    0.87430    1.000
    H88      H        0.63120    0.18220    0.88340    1.000
    H89      H        0.62750    0.28950    0.85720    1.000
    C118     C        0.33080    0.19530    0.81260    1.000
    H90      H        0.26260    0.21440    0.81540    1.000
    C119     C        0.40070    0.23340    0.84560    1.000
    H91      H        0.38150    0.27900    0.87060    1.000
    N15      N        0.09510    0.55010    0.16312    1.000
    O8       O        0.45680    0.71950    0.91677    1.000
    N16      N        0.54410    0.90080    0.77082    1.000
    C120     C        0.38240    0.61410    0.03719    1.000
    H92      H        0.41320    0.58590    0.06530    1.000
    C121     C        0.44430    0.64900    0.99773    1.000
    C122     C        0.21320    0.59380    0.07902    1.000
    C123     C        0.27710    0.62050    0.03528    1.000
    C124     C        0.25180    0.53600    0.11816    1.000
    H93      H        0.31820    0.51080    0.11660    1.000
    C125     C        0.19130    0.51560    0.15969    1.000
    H94      H        0.21830    0.47710    0.18570    1.000
    C126     C        0.39480    0.68400    0.95387    1.000
    C127     C        0.23230    0.65410    0.99114    1.000
    H95      H        0.16150    0.65570    0.98870    1.000
    C128     C        0.11590    0.62990    0.08394    1.000
    H96      H        0.08770    0.67050    0.05900    1.000
    C129     C        0.05820    0.60630    0.12640    1.000
    H97      H        0.99170    0.63100    0.12880    1.000
    C130     C        0.47390    0.86650    0.80352    1.000
    H98      H        0.40710    0.89000    0.80070    1.000
    C131     C        0.49650    0.79900    0.84056    1.000
    C132     C        0.29000    0.68510    0.95098    1.000
    H99      H        0.25800    0.70680    0.92190    1.000
    C133     C        0.64070    0.86980    0.77590    1.000
    H100     H        0.68980    0.89370    0.75360    1.000
    C134     C        0.41320    0.76160    0.87430    1.000
    H101     H        0.36880    0.81780    0.88340    1.000
    H102     H        0.37250    0.71050    0.85720    1.000
    C135     C        0.66920    0.80470    0.81260    1.000
    H103     H        0.73740    0.78560    0.81540    1.000
    C136     C        0.59930    0.76660    0.84560    1.000
    H104     H        0.61850    0.72100    0.87060    1.000
    Cu1      Cu       0.50000    0.00000    0.28255    1.000
    Cu2      Cu       0.00000    0.50000    0.78255    1.000
    Cu3      Cu       0.50000    0.00000    0.71745    1.000
    Cu4      Cu       0.00000    0.50000    0.21745    1.000
