# CIF file generated by openbabel 3.1.0, see https://openbabel.org
data_I
_chemical_name_common 'image0'
_cell_length_a 8.1156
_cell_length_b 20.3861
_cell_length_c 8.6579
_cell_angle_alpha 90
_cell_angle_beta 91.199
_cell_angle_gamma 90
_space_group_name_H-M_alt 'P 1'
_space_group_name_Hall 'P 1'
loop_
    _symmetry_equiv_pos_as_xyz
    x,y,z
loop_
    _atom_site_label
    _atom_site_type_symbol
    _atom_site_fract_x
    _atom_site_fract_y
    _atom_site_fract_z
    _atom_site_occupancy
    C1       C        0.88220    0.87020    0.68880    1.000
    H1       H        0.99350    0.86310    0.72100    1.000
    C2       C        0.61900    0.85600    0.64210    1.000
    H2       H        0.51250    0.83670    0.63550    1.000
    C3       C        0.83220    0.63530    0.84560    1.000
    H3       H        0.94020    0.65100    0.82720    1.000
    C4       C        0.56280    0.62980    0.85830    1.000
    H4       H        0.44870    0.64000    0.85040    1.000
    C5       C        0.81270    0.50030    0.21050    1.000
    H5       H        0.89240    0.50300    0.13200    1.000
    C6       C        0.69700    0.49380    0.43650    1.000
    H6       H        0.68240    0.49160    0.54500    1.000
    N1       N        0.82550    0.92370    0.62650    1.000
    N2       N        0.65580    0.91480    0.59720    1.000
    N3       N        0.75860    0.82590    0.70100    1.000
    N4       N        0.78940    0.76320    0.75620    1.000
    N5       N        0.65690    0.73290    0.75950    1.000
    N6       N        0.68780    0.66920    0.81440    1.000
    N7       N        0.79630    0.57850    0.90450    1.000
    N8       N        0.62500    0.57590    0.91280    1.000
    N9       N        0.65300    0.49810    0.18870    1.000
    N10      N        0.57920    0.49300    0.33320    1.000
    N11      N        0.84480    0.49810    0.36600    1.000
    N12      N        0.00310    0.50070    0.42740    1.000
    C7       C        0.11780    0.12980    0.31120    1.000
    H7       H        0.00650    0.13690    0.27900    1.000
    C8       C        0.38100    0.14400    0.35790    1.000
    H8       H        0.48750    0.16330    0.36450    1.000
    C9       C        0.16780    0.36470    0.15440    1.000
    H9       H        0.05980    0.34900    0.17280    1.000
    C10      C        0.43720    0.37020    0.14170    1.000
    H10      H        0.55130    0.36000    0.14960    1.000
    C11      C        0.18730    0.49970    0.78950    1.000
    H11      H        0.10760    0.49700    0.86800    1.000
    C12      C        0.30300    0.50620    0.56350    1.000
    H12      H        0.31760    0.50840    0.45500    1.000
    N13      N        0.17450    0.07630    0.37350    1.000
    N14      N        0.34420    0.08520    0.40280    1.000
    N15      N        0.24140    0.17410    0.29900    1.000
    N16      N        0.21060    0.23680    0.24380    1.000
    N17      N        0.34310    0.26710    0.24050    1.000
    N18      N        0.31220    0.33080    0.18560    1.000
    N19      N        0.20370    0.42150    0.09550    1.000
    N20      N        0.37500    0.42410    0.08720    1.000
    N21      N        0.34700    0.50190    0.81130    1.000
    N22      N        0.42080    0.50700    0.66680    1.000
    N23      N        0.15520    0.50190    0.63400    1.000
    N24      N        0.99690    0.49930    0.57260    1.000
    Cu1      Cu       0.50000    0.50000    0.00000    1.000
    C13      C        0.61780    0.37020    0.81120    1.000
    H13      H        0.50650    0.36310    0.77900    1.000
    C14      C        0.88100    0.35600    0.85790    1.000
    H14      H        0.98750    0.33670    0.86450    1.000
    C15      C        0.66780    0.13530    0.65440    1.000
    H15      H        0.55980    0.15100    0.67280    1.000
    C16      C        0.93720    0.12980    0.64170    1.000
    H16      H        0.05130    0.14000    0.64960    1.000
    C17      C        0.68730    0.00030    0.28950    1.000
    H17      H        0.60760    0.00300    0.36800    1.000
    C18      C        0.80300    0.99380    0.06350    1.000
    H18      H        0.81760    0.99160    0.95500    1.000
    N25      N        0.67450    0.42370    0.87350    1.000
    N26      N        0.84420    0.41480    0.90280    1.000
    N27      N        0.74140    0.32590    0.79900    1.000
    N28      N        0.71060    0.26320    0.74380    1.000
    N29      N        0.84310    0.23290    0.74050    1.000
    N30      N        0.81220    0.16920    0.68560    1.000
    N31      N        0.70370    0.07850    0.59550    1.000
    N32      N        0.87500    0.07590    0.58720    1.000
    N33      N        0.84700    0.99810    0.31130    1.000
    N34      N        0.92080    0.99300    0.16680    1.000
    N35      N        0.65520    0.99810    0.13400    1.000
    N36      N        0.49690    0.00070    0.07260    1.000
    C19      C        0.38220    0.62980    0.18880    1.000
    H19      H        0.49350    0.63690    0.22100    1.000
    C20      C        0.11900    0.64400    0.14210    1.000
    H20      H        0.01250    0.66330    0.13550    1.000
    C21      C        0.33220    0.86470    0.34560    1.000
    H21      H        0.44020    0.84900    0.32720    1.000
    C22      C        0.06280    0.87020    0.35830    1.000
    H22      H        0.94870    0.86000    0.35040    1.000
    C23      C        0.31270    0.99970    0.71050    1.000
    H23      H        0.39240    0.99700    0.63200    1.000
    C24      C        0.19700    0.00620    0.93650    1.000
    H24      H        0.18240    0.00840    0.04500    1.000
    N37      N        0.32550    0.57630    0.12650    1.000
    N38      N        0.15580    0.58520    0.09720    1.000
    N39      N        0.25860    0.67410    0.20100    1.000
    N40      N        0.28940    0.73680    0.25620    1.000
    N41      N        0.15690    0.76710    0.25950    1.000
    N42      N        0.18780    0.83080    0.31440    1.000
    N43      N        0.29630    0.92150    0.40450    1.000
    N44      N        0.12500    0.92410    0.41280    1.000
    N45      N        0.15300    0.00190    0.68870    1.000
    N46      N        0.07920    0.00700    0.83320    1.000
    N47      N        0.34480    0.00190    0.86600    1.000
    N48      N        0.50310    0.99930    0.92740    1.000
    Cu2      Cu       0.00000    0.00000    0.50000    1.000
