# CIF file generated by openbabel 3.1.0, see https://openbabel.org
data_I
_chemical_name_common 'image0'
_cell_length_a 9.9555
_cell_length_b 10.5461
_cell_length_c 10.9407
_cell_angle_alpha 80.768
_cell_angle_beta 71.981
_cell_angle_gamma 74.567
_space_group_name_H-M_alt 'P 1'
_space_group_name_Hall 'P 1'
loop_
    _symmetry_equiv_pos_as_xyz
    x,y,z
loop_
    _atom_site_label
    _atom_site_type_symbol
    _atom_site_fract_x
    _atom_site_fract_y
    _atom_site_fract_z
    _atom_site_occupancy
    Er1      Er       0.17338    0.19279    0.03369    1.000
    Zn1      Zn       0.29091    0.36783    0.61807    1.000
    N1       N        0.13000    0.30330    0.57510    1.000
    N2       N        0.47810    0.20270    0.57240    1.000
    C1       C        0.03260    0.24220    0.65980    1.000
    H1       H        0.04700    0.21300    0.74100    1.000
    C2       C        0.91190    0.22830    0.63170    1.000
    H2       H        0.84900    0.18800    0.68900    1.000
    C3       C        0.89150    0.27730    0.51200    1.000
    H3       H        0.80700    0.26500    0.49100    1.000
    C4       C        0.99380    0.33830    0.42210    1.000
    C5       C        0.11220    0.35130    0.45770    1.000
    C6       C        0.22690    0.42260    0.37270    1.000
    C7       C        0.97340    0.38250    0.28900    1.000
    C8       C        0.56360    0.17050    0.45530    1.000
    H4       H        0.53300    0.21800    0.39000    1.000
    C9       C        0.68940    0.07100    0.43860    1.000
    H5       H        0.74800    0.06100    0.35400    1.000
    C10      C        0.72860    0.00510    0.54660    1.000
    H6       H        0.80600    0.94500    0.53800    1.000
    C11      C        0.64090    0.03670    0.66940    1.000
    C12      C        0.51480    0.13540    0.67730    1.000
    C13      C        0.40180    0.16880    0.80320    1.000
    C14      C        0.68970    0.96090    0.78470    1.000
    C15      C        0.94070    0.02020    0.06270    1.000
    O1       O        0.22330    0.46310    0.26060    1.000
    O2       O        0.31730    0.43850    0.42570    1.000
    O3       O        0.03140    0.29790    0.20910    1.000
    O4       O        0.89510    0.49330    0.26870    1.000
    O5       O        0.28860    0.25840    0.79915    1.000
    O6       O        0.41840    0.10560    0.90581    1.000
    O7       O        0.67140    0.84580    0.81670    1.000
    O8       O        0.75680    0.01040    0.83740    1.000
    O9       O        0.95800    0.10600    0.11930    1.000
    O10      O        0.83800    0.96300    0.09700    1.000
    Er2      Er       0.82662    0.80721    0.96631    1.000
    Zn2      Zn       0.70909    0.63217    0.38193    1.000
    N3       N        0.87000    0.69670    0.42490    1.000
    N4       N        0.52190    0.79730    0.42760    1.000
    C16      C        0.96740    0.75780    0.34020    1.000
    H7       H        0.95300    0.78700    0.25900    1.000
    C17      C        0.08810    0.77170    0.36830    1.000
    H8       H        0.15100    0.81200    0.31100    1.000
    C18      C        0.10850    0.72270    0.48800    1.000
    H9       H        0.19300    0.73500    0.50900    1.000
    C19      C        0.00620    0.66170    0.57790    1.000
    C20      C        0.88780    0.64870    0.54230    1.000
    C21      C        0.77310    0.57740    0.62730    1.000
    C22      C        0.02660    0.61750    0.71100    1.000
    C23      C        0.43640    0.82950    0.54470    1.000
    H10      H        0.46700    0.78200    0.61000    1.000
    C24      C        0.31060    0.92900    0.56140    1.000
    H11      H        0.25200    0.93900    0.64600    1.000
    C25      C        0.27140    0.99490    0.45340    1.000
    H12      H        0.19400    0.05500    0.46200    1.000
    C26      C        0.35910    0.96330    0.33060    1.000
    C27      C        0.48520    0.86460    0.32270    1.000
    C28      C        0.59820    0.83120    0.19680    1.000
    C29      C        0.31030    0.03910    0.21530    1.000
    C30      C        0.05930    0.97980    0.93730    1.000
    O11      O        0.77670    0.53690    0.73940    1.000
    O12      O        0.68270    0.56150    0.57430    1.000
    O13      O        0.96860    0.70210    0.79090    1.000
    O14      O        0.10490    0.50670    0.73130    1.000
    O15      O        0.71140    0.74160    0.20085    1.000
    O16      O        0.58160    0.89440    0.09419    1.000
    O17      O        0.32860    0.15420    0.18330    1.000
    O18      O        0.24320    0.98960    0.16260    1.000
    O19      O        0.04200    0.89400    0.88070    1.000
    O20      O        0.16200    0.03700    0.90300    1.000
