# CIF file generated by openbabel 3.1.0, see https://openbabel.org
data_I
_chemical_name_common 'image0'
_cell_length_a 7.0962
_cell_length_b 12.4549
_cell_length_c 13.158
_cell_angle_alpha 68.16
_cell_angle_beta 83.115
_cell_angle_gamma 81.834
_space_group_name_H-M_alt 'P 1'
_space_group_name_Hall 'P 1'
loop_
    _symmetry_equiv_pos_as_xyz
    x,y,z
loop_
    _atom_site_label
    _atom_site_type_symbol
    _atom_site_fract_x
    _atom_site_fract_y
    _atom_site_fract_z
    _atom_site_occupancy
    Cu1      Cu       0.31771    0.97902    0.25108    1.000
    Cu2      Cu       0.48033    0.36916    0.19657    1.000
    Cu3      Cu       0.68601    0.93300    0.16225    1.000
    Br1      Br       0.51204    0.79144    0.33805    1.000
    C1       C        0.50470    0.44820    0.38730    1.000
    C2       C        0.44880    0.21140    0.22690    1.000
    C3       C        0.07720    0.95060    0.22330    1.000
    C4       C        0.53780    0.98310    0.03750    1.000
    C5       C        0.49310    0.47150    0.04450    1.000
    N1       N        0.49550    0.41870    0.31550    1.000
    N2       N        0.41220    0.12230    0.23790    1.000
    N3       N        0.93150    0.94190    0.20200    1.000
    N4       N        0.46220    0.01690    0.96250    1.000
    N5       N        0.50690    0.52850    0.95550    1.000
    Cu4      Cu       0.68229    0.02098    0.74892    1.000
    Cu5      Cu       0.51967    0.63084    0.80343    1.000
    Cu6      Cu       0.31399    0.06700    0.83775    1.000
    Br2      Br       0.48796    0.20856    0.66195    1.000
    C6       C        0.49530    0.55180    0.61270    1.000
    C7       C        0.55120    0.78860    0.77310    1.000
    C8       C        0.92280    0.04940    0.77670    1.000
    N6       N        0.50450    0.58130    0.68450    1.000
    N7       N        0.58780    0.87770    0.76210    1.000
    N8       N        0.06850    0.05810    0.79800    1.000
    Cu7      Cu       0.50000    0.50000    0.50000    1.000
