# CIF file generated by openbabel 3.1.0, see https://openbabel.org
data_I
_chemical_name_common 'image0'
_cell_length_a 13.7368
_cell_length_b 8.8737
_cell_length_c 7.9839
_cell_angle_alpha 90
_cell_angle_beta 120.815
_cell_angle_gamma 90
_space_group_name_H-M_alt 'P 1'
_space_group_name_Hall 'P 1'
loop_
    _symmetry_equiv_pos_as_xyz
    x,y,z
loop_
    _atom_site_label
    _atom_site_type_symbol
    _atom_site_fract_x
    _atom_site_fract_y
    _atom_site_fract_z
    _atom_site_occupancy
    C1       C        0.49650    0.15940    0.66200    1.000
    N1       N        0.49440    0.25910    0.75220    1.000
    C2       C        0.99650    0.65940    0.66200    1.000
    N2       N        0.99440    0.75910    0.75220    1.000
    C3       C        0.50350    0.15940    0.33800    1.000
    N3       N        0.50560    0.25910    0.24780    1.000
    C4       C        0.00350    0.65940    0.33800    1.000
    N4       N        0.00560    0.75910    0.24780    1.000
    C5       C        0.50350    0.84060    0.33800    1.000
    N5       N        0.50560    0.74090    0.24780    1.000
    C6       C        0.00350    0.34060    0.33800    1.000
    N6       N        0.00560    0.24090    0.24780    1.000
    C7       C        0.49650    0.84060    0.66200    1.000
    N7       N        0.49440    0.74090    0.75220    1.000
    C8       C        0.99650    0.34060    0.66200    1.000
    N8       N        0.99440    0.24090    0.75220    1.000
    Fe1      Fe       0.50000    0.00000    0.50000    1.000
    Fe2      Fe       0.00000    0.50000    0.50000    1.000
    K1       K        0.00000    0.00000    0.00000    1.000
    K2       K        0.50000    0.50000    0.00000    1.000
    N9       N        0.76010    0.00000    0.75610    1.000
    C9       C        0.66300    0.00000    0.65780    1.000
    N10      N        0.26010    0.50000    0.75610    1.000
    C10      C        0.16300    0.50000    0.65780    1.000
    N11      N        0.23990    0.00000    0.24390    1.000
    C11      C        0.33700    0.00000    0.34220    1.000
    N12      N        0.73990    0.50000    0.24390    1.000
    C12      C        0.83700    0.50000    0.34220    1.000
