# CIF file generated by openbabel 3.1.0, see https://openbabel.org
data_I
_chemical_name_common 'image0'
_cell_length_a 12.5382
_cell_length_b 16.2052
_cell_length_c 20.0829
_cell_angle_alpha 90
_cell_angle_beta 94.732
_cell_angle_gamma 90
_space_group_name_H-M_alt 'P 1'
_space_group_name_Hall 'P 1'
loop_
    _symmetry_equiv_pos_as_xyz
    x,y,z
loop_
    _atom_site_label
    _atom_site_type_symbol
    _atom_site_fract_x
    _atom_site_fract_y
    _atom_site_fract_z
    _atom_site_occupancy
    Zn1      Zn       0.28847    0.40981    0.41205    1.000
    C1       C        0.41480    0.54191    0.34332    1.000
    C2       C        0.51830    0.53150    0.38416    1.000
    H1       H        0.51080    0.48990    0.41750    1.000
    H2       H        0.53840    0.58280    0.40560    1.000
    H3       H        0.57250    0.51500    0.35580    1.000
    C3       C        0.15730    0.29610    0.31400    1.000
    C4       C        0.21840    0.30760    0.25480    1.000
    H4       H        0.19000    0.27210    0.21940    1.000
    H5       H        0.29230    0.29420    0.26620    1.000
    H6       H        0.21280    0.36400    0.24030    1.000
    C5       C        0.46480    0.32160    0.41628    1.000
    C6       C        0.57340    0.28800    0.43841    1.000
    C7       C        0.63030    0.24160    0.39366    1.000
    H7       H        0.59930    0.23080    0.35090    1.000
    C8       C        0.72960    0.21240    0.41223    1.000
    H8       H        0.76650    0.18270    0.38190    1.000
    C9       C        0.77750    0.22690    0.47739    1.000
    C10      C        0.88150    0.19670    0.49839    1.000
    H9       H        0.91920    0.16630    0.46890    1.000
    N1       N        0.32520    0.50074    0.35097    1.000
    N2       N        0.25150    0.52915    0.30191    1.000
    N3       N        0.29530    0.58484    0.26776    1.000
    N4       N        0.39900    0.59538    0.29260    1.000
    N5       N        0.17350    0.33469    0.37221    1.000
    N6       N        0.09940    0.30536    0.41162    1.000
    N7       N        0.04090    0.25118    0.37839    1.000
    N8       N        0.07610    0.24399    0.31629    1.000
    O1       O        0.41666    0.36260    0.45873    1.000
    O2       O        0.42690    0.31107    0.35815    1.000
    Zn2      Zn       0.78847    0.90981    0.41205    1.000
    C11      C        0.91480    0.04191    0.34332    1.000
    C12      C        0.01830    0.03150    0.38416    1.000
    H10      H        0.01080    0.98990    0.41750    1.000
    H11      H        0.03840    0.08280    0.40560    1.000
    H12      H        0.07250    0.01500    0.35580    1.000
    C13      C        0.65730    0.79610    0.31400    1.000
    C14      C        0.71840    0.80760    0.25480    1.000
    H13      H        0.69000    0.77210    0.21940    1.000
    H14      H        0.79230    0.79420    0.26620    1.000
    H15      H        0.71280    0.86400    0.24030    1.000
    C15      C        0.96480    0.82160    0.41628    1.000
    C16      C        0.07340    0.78800    0.43841    1.000
    C17      C        0.13030    0.74160    0.39366    1.000
    H16      H        0.09930    0.73080    0.35090    1.000
    C18      C        0.22960    0.71240    0.41223    1.000
    H17      H        0.26650    0.68270    0.38190    1.000
    C19      C        0.27750    0.72690    0.47739    1.000
    C20      C        0.38150    0.69670    0.49839    1.000
    H18      H        0.41920    0.66630    0.46890    1.000
    N9       N        0.82520    0.00074    0.35097    1.000
    N10      N        0.75150    0.02915    0.30191    1.000
    N11      N        0.79530    0.08484    0.26776    1.000
    N12      N        0.89900    0.09538    0.29260    1.000
    N13      N        0.67350    0.83469    0.37221    1.000
    N14      N        0.59940    0.80536    0.41162    1.000
    N15      N        0.54090    0.75118    0.37839    1.000
    N16      N        0.57610    0.74399    0.31629    1.000
    O3       O        0.91666    0.86260    0.45873    1.000
    O4       O        0.92690    0.81107    0.35815    1.000
    Zn3      Zn       0.71153    0.40981    0.08795    1.000
    C21      C        0.58520    0.54191    0.15668    1.000
    C22      C        0.48170    0.53150    0.11584    1.000
    H19      H        0.48920    0.48990    0.08250    1.000
    H20      H        0.46160    0.58280    0.09440    1.000
    H21      H        0.42750    0.51500    0.14420    1.000
    C23      C        0.84270    0.29610    0.18600    1.000
    C24      C        0.78160    0.30760    0.24520    1.000
    H22      H        0.81000    0.27210    0.28060    1.000
    H23      H        0.70770    0.29420    0.23380    1.000
    H24      H        0.78720    0.36400    0.25970    1.000
    C25      C        0.53520    0.32160    0.08372    1.000
    C26      C        0.42660    0.28800    0.06159    1.000
    C27      C        0.36970    0.24160    0.10634    1.000
    H25      H        0.40070    0.23080    0.14910    1.000
    C28      C        0.27040    0.21240    0.08777    1.000
    H26      H        0.23350    0.18270    0.11810    1.000
    C29      C        0.22250    0.22690    0.02261    1.000
    C30      C        0.11850    0.19670    0.00161    1.000
    H27      H        0.08080    0.16630    0.03110    1.000
    N17      N        0.67480    0.50074    0.14903    1.000
    N18      N        0.74850    0.52915    0.19809    1.000
    N19      N        0.70470    0.58484    0.23224    1.000
    N20      N        0.60100    0.59538    0.20740    1.000
    N21      N        0.82650    0.33469    0.12779    1.000
    N22      N        0.90060    0.30536    0.08838    1.000
    N23      N        0.95910    0.25118    0.12161    1.000
    N24      N        0.92390    0.24399    0.18371    1.000
    O5       O        0.58334    0.36260    0.04127    1.000
    O6       O        0.57310    0.31107    0.14185    1.000
    Zn4      Zn       0.21153    0.90981    0.08795    1.000
    C31      C        0.08520    0.04191    0.15668    1.000
    C32      C        0.98170    0.03150    0.11584    1.000
    H28      H        0.98920    0.98990    0.08250    1.000
    H29      H        0.96160    0.08280    0.09440    1.000
    H30      H        0.92750    0.01500    0.14420    1.000
    C33      C        0.34270    0.79610    0.18600    1.000
    C34      C        0.28160    0.80760    0.24520    1.000
    H31      H        0.31000    0.77210    0.28060    1.000
    H32      H        0.20770    0.79420    0.23380    1.000
    H33      H        0.28720    0.86400    0.25970    1.000
    C35      C        0.03520    0.82160    0.08372    1.000
    C36      C        0.92660    0.78800    0.06159    1.000
    C37      C        0.86970    0.74160    0.10634    1.000
    H34      H        0.90070    0.73080    0.14910    1.000
    C38      C        0.77040    0.71240    0.08777    1.000
    H35      H        0.73350    0.68270    0.11810    1.000
    C39      C        0.72250    0.72690    0.02261    1.000
    C40      C        0.61850    0.69670    0.00161    1.000
    H36      H        0.58080    0.66630    0.03110    1.000
    N25      N        0.17480    0.00074    0.14903    1.000
    N26      N        0.24850    0.02915    0.19809    1.000
    N27      N        0.20470    0.08484    0.23224    1.000
    N28      N        0.10100    0.09538    0.20740    1.000
    N29      N        0.32650    0.83469    0.12779    1.000
    N30      N        0.40060    0.80536    0.08838    1.000
    N31      N        0.45910    0.75118    0.12161    1.000
    N32      N        0.42390    0.74399    0.18371    1.000
    O7       O        0.08334    0.86260    0.04127    1.000
    O8       O        0.07310    0.81107    0.14185    1.000
    Zn5      Zn       0.71153    0.59019    0.58795    1.000
    C41      C        0.58520    0.45809    0.65668    1.000
    C42      C        0.48170    0.46850    0.61584    1.000
    H37      H        0.48920    0.51010    0.58250    1.000
    H38      H        0.46160    0.41720    0.59440    1.000
    H39      H        0.42750    0.48500    0.64420    1.000
    C43      C        0.84270    0.70390    0.68600    1.000
    C44      C        0.78160    0.69240    0.74520    1.000
    H40      H        0.81000    0.72790    0.78060    1.000
    H41      H        0.70770    0.70580    0.73380    1.000
    H42      H        0.78720    0.63600    0.75970    1.000
    C45      C        0.53520    0.67840    0.58372    1.000
    C46      C        0.42660    0.71200    0.56159    1.000
    C47      C        0.36970    0.75840    0.60634    1.000
    H43      H        0.40070    0.76920    0.64910    1.000
    C48      C        0.27040    0.78760    0.58777    1.000
    H44      H        0.23350    0.81730    0.61810    1.000
    C49      C        0.22250    0.77310    0.52261    1.000
    C50      C        0.11850    0.80330    0.50161    1.000
    H45      H        0.08080    0.83370    0.53110    1.000
    N33      N        0.67480    0.49926    0.64903    1.000
    N34      N        0.74850    0.47085    0.69809    1.000
    N35      N        0.70470    0.41516    0.73224    1.000
    N36      N        0.60100    0.40462    0.70740    1.000
    N37      N        0.82650    0.66531    0.62779    1.000
    N38      N        0.90060    0.69464    0.58838    1.000
    N39      N        0.95910    0.74882    0.62161    1.000
    N40      N        0.92390    0.75601    0.68371    1.000
    O9       O        0.58334    0.63740    0.54127    1.000
    O10      O        0.57310    0.68893    0.64185    1.000
    Zn6      Zn       0.21153    0.09019    0.58795    1.000
    C51      C        0.08520    0.95809    0.65668    1.000
    C52      C        0.98170    0.96850    0.61584    1.000
    H46      H        0.98920    0.01010    0.58250    1.000
    H47      H        0.96160    0.91720    0.59440    1.000
    H48      H        0.92750    0.98500    0.64420    1.000
    C53      C        0.34270    0.20390    0.68600    1.000
    C54      C        0.28160    0.19240    0.74520    1.000
    H49      H        0.31000    0.22790    0.78060    1.000
    H50      H        0.20770    0.20580    0.73380    1.000
    H51      H        0.28720    0.13600    0.75970    1.000
    C55      C        0.03520    0.17840    0.58372    1.000
    C56      C        0.92660    0.21200    0.56159    1.000
    C57      C        0.86970    0.25840    0.60634    1.000
    H52      H        0.90070    0.26920    0.64910    1.000
    C58      C        0.77040    0.28760    0.58777    1.000
    H53      H        0.73350    0.31730    0.61810    1.000
    C59      C        0.72250    0.27310    0.52261    1.000
    C60      C        0.61850    0.30330    0.50161    1.000
    H54      H        0.58080    0.33370    0.53110    1.000
    N41      N        0.17480    0.99926    0.64903    1.000
    N42      N        0.24850    0.97085    0.69809    1.000
    N43      N        0.20470    0.91516    0.73224    1.000
    N44      N        0.10100    0.90462    0.70740    1.000
    N45      N        0.32650    0.16531    0.62779    1.000
    N46      N        0.40060    0.19464    0.58838    1.000
    N47      N        0.45910    0.24882    0.62161    1.000
    N48      N        0.42390    0.25601    0.68371    1.000
    O11      O        0.08334    0.13740    0.54127    1.000
    O12      O        0.07310    0.18893    0.64185    1.000
    Zn7      Zn       0.28847    0.59019    0.91205    1.000
    C61      C        0.41480    0.45809    0.84332    1.000
    C62      C        0.51830    0.46850    0.88416    1.000
    H55      H        0.51080    0.51010    0.91750    1.000
    H56      H        0.53840    0.41720    0.90560    1.000
    H57      H        0.57250    0.48500    0.85580    1.000
    C63      C        0.15730    0.70390    0.81400    1.000
    C64      C        0.21840    0.69240    0.75480    1.000
    H58      H        0.19000    0.72790    0.71940    1.000
    H59      H        0.29230    0.70580    0.76620    1.000
    H60      H        0.21280    0.63600    0.74030    1.000
    C65      C        0.46480    0.67840    0.91628    1.000
    C66      C        0.57340    0.71200    0.93841    1.000
    C67      C        0.63030    0.75840    0.89366    1.000
    H61      H        0.59930    0.76920    0.85090    1.000
    C68      C        0.72960    0.78760    0.91223    1.000
    H62      H        0.76650    0.81730    0.88190    1.000
    C69      C        0.77750    0.77310    0.97739    1.000
    C70      C        0.88150    0.80330    0.99839    1.000
    H63      H        0.91920    0.83370    0.96890    1.000
    N49      N        0.32520    0.49926    0.85097    1.000
    N50      N        0.25150    0.47085    0.80191    1.000
    N51      N        0.29530    0.41516    0.76776    1.000
    N52      N        0.39900    0.40462    0.79260    1.000
    N53      N        0.17350    0.66531    0.87221    1.000
    N54      N        0.09940    0.69464    0.91162    1.000
    N55      N        0.04090    0.74882    0.87839    1.000
    N56      N        0.07610    0.75601    0.81629    1.000
    O13      O        0.41666    0.63740    0.95873    1.000
    O14      O        0.42690    0.68893    0.85815    1.000
    Zn8      Zn       0.78847    0.09019    0.91205    1.000
    C71      C        0.91480    0.95809    0.84332    1.000
    C72      C        0.01830    0.96850    0.88416    1.000
    H64      H        0.01080    0.01010    0.91750    1.000
    H65      H        0.03840    0.91720    0.90560    1.000
    H66      H        0.07250    0.98500    0.85580    1.000
    C73      C        0.65730    0.20390    0.81400    1.000
    C74      C        0.71840    0.19240    0.75480    1.000
    H67      H        0.69000    0.22790    0.71940    1.000
    H68      H        0.79230    0.20580    0.76620    1.000
    H69      H        0.71280    0.13600    0.74030    1.000
    C75      C        0.96480    0.17840    0.91628    1.000
    C76      C        0.07340    0.21200    0.93841    1.000
    C77      C        0.13030    0.25840    0.89366    1.000
    H70      H        0.09930    0.26920    0.85090    1.000
    C78      C        0.22960    0.28760    0.91223    1.000
    H71      H        0.26650    0.31730    0.88190    1.000
    C79      C        0.27750    0.27310    0.97739    1.000
    C80      C        0.38150    0.30330    0.99839    1.000
    H72      H        0.41920    0.33370    0.96890    1.000
    N57      N        0.82520    0.99926    0.85097    1.000
    N58      N        0.75150    0.97085    0.80191    1.000
    N59      N        0.79530    0.91516    0.76776    1.000
    N60      N        0.89900    0.90462    0.79260    1.000
    N61      N        0.67350    0.16531    0.87221    1.000
    N62      N        0.59940    0.19464    0.91162    1.000
    N63      N        0.54090    0.24882    0.87839    1.000
    N64      N        0.57610    0.25601    0.81629    1.000
    O15      O        0.91666    0.13740    0.95873    1.000
    O16      O        0.92690    0.18893    0.85815    1.000
    Zn9      Zn       0.50000    0.66848    0.25000    1.000
    Zn10     Zn       0.00000    0.16848    0.25000    1.000
    Zn11     Zn       0.50000    0.33152    0.75000    1.000
    Zn12     Zn       0.00000    0.83152    0.75000    1.000
