# CIF file generated by openbabel 3.1.0, see https://openbabel.org
data_I
_chemical_name_common 'image0'
_cell_length_a 12.3919
_cell_length_b 12.3919
_cell_length_c 7.9043
_cell_angle_alpha 90
_cell_angle_beta 90
_cell_angle_gamma 90
_space_group_name_H-M_alt 'P 1'
_space_group_name_Hall 'P 1'
loop_
    _symmetry_equiv_pos_as_xyz
    x,y,z
loop_
    _atom_site_label
    _atom_site_type_symbol
    _atom_site_fract_x
    _atom_site_fract_y
    _atom_site_fract_z
    _atom_site_occupancy
    Cu1      Cu       0.51429    0.82313    0.80505    1.000
    C1       C        0.66370    0.64510    0.72270    1.000
    C2       C        0.67520    0.61850    0.90880    1.000
    H1       H        0.71940    0.55430    0.91980    1.000
    H2       H        0.60440    0.60170    0.95400    1.000
    C3       C        0.72510    0.70820    0.01550    1.000
    H3       H        0.73360    0.68480    0.13190    1.000
    H4       H        0.79550    0.72800    0.97140    1.000
    C4       C        0.68080    0.88390    0.12700    1.000
    H5       H        0.75880    0.88910    0.13390    1.000
    H6       H        0.65360    0.86520    0.23830    1.000
    C5       C        0.63480    0.99020    0.07310    1.000
    H7       H        0.65890    0.04580    0.15090    1.000
    H8       H        0.66210    0.00810    0.96160    1.000
    C6       C        0.51530    0.98970    0.06850    1.000
    N1       N        0.60010    0.72410    0.66690    1.000
    N2       N        0.60730    0.72370    0.49650    1.000
    N3       N        0.67370    0.64610    0.45260    1.000
    N4       N        0.70830    0.59820    0.59460    1.000
    N5       N        0.45480    0.92110    0.97680    1.000
    N6       N        0.35000    0.94540    0.00570    1.000
    N7       N        0.34220    0.02310    0.11340    1.000
    N8       N        0.44720    0.05240    0.15850    1.000
    O1       O        0.65100    0.80000    0.00610    1.000
    Cu2      Cu       0.48571    0.17687    0.30505    1.000
    C7       C        0.33630    0.35490    0.22270    1.000
    C8       C        0.32480    0.38150    0.40880    1.000
    H9       H        0.28060    0.44570    0.41980    1.000
    H10      H        0.39560    0.39830    0.45400    1.000
    C9       C        0.27490    0.29180    0.51550    1.000
    H11      H        0.26640    0.31520    0.63190    1.000
    H12      H        0.20450    0.27200    0.47140    1.000
    C10      C        0.31920    0.11610    0.62700    1.000
    H13      H        0.24120    0.11090    0.63390    1.000
    H14      H        0.34640    0.13480    0.73830    1.000
    C11      C        0.36520    0.00980    0.57310    1.000
    H15      H        0.34110    0.95420    0.65090    1.000
    H16      H        0.33790    0.99190    0.46160    1.000
    C12      C        0.48470    0.01030    0.56850    1.000
    N9       N        0.39990    0.27590    0.16690    1.000
    N10      N        0.39270    0.27630    0.99650    1.000
    N11      N        0.32630    0.35390    0.95260    1.000
    N12      N        0.29170    0.40180    0.09460    1.000
    N13      N        0.54520    0.07890    0.47680    1.000
    N14      N        0.65000    0.05460    0.50570    1.000
    N15      N        0.65780    0.97690    0.61340    1.000
    N16      N        0.55280    0.94760    0.65850    1.000
    O2       O        0.34900    0.20000    0.50610    1.000
    Cu3      Cu       0.17687    0.51429    0.05505    1.000
    C13      C        0.35490    0.66370    0.97270    1.000
    C14      C        0.38150    0.67520    0.15880    1.000
    H17      H        0.44570    0.71940    0.16980    1.000
    H18      H        0.39830    0.60440    0.20400    1.000
    C15      C        0.29180    0.72510    0.26550    1.000
    H19      H        0.31520    0.73360    0.38190    1.000
    H20      H        0.27200    0.79550    0.22140    1.000
    C16      C        0.11610    0.68080    0.37700    1.000
    H21      H        0.11090    0.75880    0.38390    1.000
    H22      H        0.13480    0.65360    0.48830    1.000
    C17      C        0.00980    0.63480    0.32310    1.000
    H23      H        0.95420    0.65890    0.40090    1.000
    H24      H        0.99190    0.66210    0.21160    1.000
    C18      C        0.01030    0.51530    0.31850    1.000
    N17      N        0.27590    0.60010    0.91690    1.000
    N18      N        0.27630    0.60730    0.74650    1.000
    N19      N        0.35390    0.67370    0.70260    1.000
    N20      N        0.40180    0.70830    0.84460    1.000
    N21      N        0.07890    0.45480    0.22680    1.000
    N22      N        0.05460    0.35000    0.25570    1.000
    N23      N        0.97690    0.34220    0.36340    1.000
    N24      N        0.94760    0.44720    0.40850    1.000
    O3       O        0.20000    0.65100    0.25610    1.000
    Cu4      Cu       0.82313    0.48571    0.55505    1.000
    C19      C        0.64510    0.33630    0.47270    1.000
    C20      C        0.61850    0.32480    0.65880    1.000
    H25      H        0.55430    0.28060    0.66980    1.000
    H26      H        0.60170    0.39560    0.70400    1.000
    C21      C        0.70820    0.27490    0.76550    1.000
    H27      H        0.68480    0.26640    0.88190    1.000
    H28      H        0.72800    0.20450    0.72140    1.000
    C22      C        0.88390    0.31920    0.87700    1.000
    H29      H        0.88910    0.24120    0.88390    1.000
    H30      H        0.86520    0.34640    0.98830    1.000
    C23      C        0.99020    0.36520    0.82310    1.000
    H31      H        0.04580    0.34110    0.90090    1.000
    H32      H        0.00810    0.33790    0.71160    1.000
    C24      C        0.98970    0.48470    0.81850    1.000
    N25      N        0.72410    0.39990    0.41690    1.000
    N26      N        0.72370    0.39270    0.24650    1.000
    N27      N        0.64610    0.32630    0.20260    1.000
    N28      N        0.59820    0.29170    0.34460    1.000
    N29      N        0.92110    0.54520    0.72680    1.000
    N30      N        0.94540    0.65000    0.75570    1.000
    N31      N        0.02310    0.65780    0.86340    1.000
    N32      N        0.05240    0.55280    0.90850    1.000
    O4       O        0.80000    0.34900    0.75610    1.000
