# CIF file generated by openbabel 3.1.0, see https://openbabel.org
data_I
_chemical_name_common 'image0'
_cell_length_a 22.029
_cell_length_b 16.4861
_cell_length_c 25.5887
_cell_angle_alpha 90
_cell_angle_beta 115.233
_cell_angle_gamma 90
_space_group_name_H-M_alt 'P 1'
_space_group_name_Hall 'P 1'
loop_
    _symmetry_equiv_pos_as_xyz
    x,y,z
loop_
    _atom_site_label
    _atom_site_type_symbol
    _atom_site_fract_x
    _atom_site_fract_y
    _atom_site_fract_z
    _atom_site_occupancy
    Ag1      Ag       0.34427    0.04257    0.36763    1.000
    Ag2      Ag       0.82266    0.24623    0.86705    1.000
    C1       C        0.09770    0.02930    0.00030    1.000
    C2       C        0.27750    0.86190    0.00870    1.000
    H1       H        0.29830    0.86540    0.04880    1.000
    C3       C        0.62370    0.24320    0.50150    1.000
    C4       C        0.55980    0.19830    0.46910    1.000
    C5       C        0.73550    0.43560    0.38820    1.000
    H2       H        0.71370    0.44270    0.34840    1.000
    C6       C        0.79780    0.41610    0.50470    1.000
    H3       H        0.82000    0.41210    0.54470    1.000
    C7       C        0.94390    0.15630    0.96420    1.000
    H4       H        0.92390    0.18430    0.98420    1.000
    C8       C        0.21990    0.84730    0.89170    1.000
    H5       H        0.19990    0.84250    0.85170    1.000
    C9       C        0.53290    0.18810    0.41030    1.000
    H6       H        0.55440    0.20910    0.38890    1.000
    C10      C        0.70980    0.27330    0.58680    1.000
    C11      C        0.00360    0.11580    0.99580    1.000
    H7       H        0.02320    0.11710    0.03600    1.000
    C12      C        0.74350    0.26330    0.65090    1.000
    C13      C        0.18020    0.99770    0.08740    1.000
    C14      C        0.18230    0.94820    0.00630    1.000
    C15      C        0.17930    0.04390    0.18070    1.000
    H8       H        0.13540    0.06200    0.16070    1.000
    C16      C        0.03340    0.07360    0.96610    1.000
    C17      C        0.52610    0.16450    0.49910    1.000
    H9       H        0.54350    0.16880    0.53910    1.000
    C18      C        0.73570    0.37890    0.47410    1.000
    C19      C        0.21510    0.89850    0.97700    1.000
    C20      C        0.70380    0.39020    0.41460    1.000
    H10      H        0.66180    0.36750    0.39300    1.000
    C21      C        0.70540    0.32780    0.50460    1.000
    C22      C        0.21230    0.00750    0.15140    1.000
    C23      C        0.18610    0.88970    0.91800    1.000
    H11      H        0.14420    0.91210    0.89580    1.000
    C24      C        0.82550    0.45920    0.47370    1.000
    H12      H        0.86760    0.48210    0.49390    1.000
    C25      C        0.47340    0.14630    0.38360    1.000
    H13      H        0.45610    0.13850    0.34390    1.000
    C26      C        0.30790    0.81980    0.97860    1.000
    H14      H        0.34940    0.79550    0.99950    1.000
    C27      C        0.46700    0.12470    0.46850    1.000
    H15      H        0.44480    0.10220    0.48890    1.000
    C28      C        0.00200    0.07250    0.90630    1.000
    H16      H        0.01950    0.04240    0.88530    1.000
    C29      C        0.30700    0.99470    0.24170    1.000
    H17      H        0.35120    0.97780    0.26260    1.000
    C30      C        0.80210    0.30150    0.68440    1.000
    H18      H        0.82400    0.33340    0.66780    1.000
    C31      C        0.94420    0.11690    0.87890    1.000
    H19      H        0.92530    0.11930    0.83880    1.000
    C32      C        0.74550    0.20490    0.73670    1.000
    H20      H        0.72650    0.17010    0.75430    1.000
    C33      C        0.21190    0.05330    0.23960    1.000
    H21      H        0.18900    0.07760    0.25870    1.000
    C34      C        0.27820    0.98320    0.18280    1.000
    H22      H        0.30240    0.95960    0.16460    1.000
    C35      C        0.71500    0.21140    0.67720    1.000
    H23      H        0.67650    0.18200    0.65530    1.000
    C36      C        0.82850    0.29190    0.74400    1.000
    H24      H        0.86790    0.31930    0.76660    1.000
    N1       N        0.43940    0.11640    0.41130    1.000
    N2       N        0.79540    0.46980    0.41660    1.000
    N3       N        0.80080    0.24600    0.77040    1.000
    N4       N        0.65290    0.23270    0.55850    1.000
    N5       N        0.73780    0.32240    0.56210    1.000
    N6       N        0.64790    0.28970    0.47190    1.000
    N7       N        0.91350    0.15710    0.90640    1.000
    N8       N        0.27970    0.81300    0.92120    1.000
    N9       N        0.27560    0.02880    0.27100    1.000
    N10      N        0.12270    0.03730    0.05800    1.000
    N11      N        0.12610    0.98770    0.97260    1.000
    N12      N        0.21140    0.95010    0.06410    1.000
    Ag3      Ag       0.84427    0.54257    0.36763    1.000
    Ag4      Ag       0.32266    0.74623    0.86705    1.000
    C37      C        0.59770    0.52930    0.00030    1.000
    C38      C        0.77750    0.36190    0.00870    1.000
    H25      H        0.79830    0.36540    0.04880    1.000
    C39      C        0.12370    0.74320    0.50150    1.000
    C40      C        0.05980    0.69830    0.46910    1.000
    C41      C        0.23550    0.93560    0.38820    1.000
    H26      H        0.21370    0.94270    0.34840    1.000
    C42      C        0.29780    0.91610    0.50470    1.000
    H27      H        0.32000    0.91210    0.54470    1.000
    C43      C        0.44390    0.65630    0.96420    1.000
    H28      H        0.42390    0.68430    0.98420    1.000
    C44      C        0.71990    0.34730    0.89170    1.000
    H29      H        0.69990    0.34250    0.85170    1.000
    C45      C        0.03290    0.68810    0.41030    1.000
    H30      H        0.05440    0.70910    0.38890    1.000
    C46      C        0.20980    0.77330    0.58680    1.000
    C47      C        0.50360    0.61580    0.99580    1.000
    H31      H        0.52320    0.61710    0.03600    1.000
    C48      C        0.24350    0.76330    0.65090    1.000
    C49      C        0.68020    0.49770    0.08740    1.000
    C50      C        0.68230    0.44820    0.00630    1.000
    C51      C        0.67930    0.54390    0.18070    1.000
    H32      H        0.63540    0.56200    0.16070    1.000
    C52      C        0.53340    0.57360    0.96610    1.000
    C53      C        0.02610    0.66450    0.49910    1.000
    H33      H        0.04350    0.66880    0.53910    1.000
    C54      C        0.23570    0.87890    0.47410    1.000
    C55      C        0.71510    0.39850    0.97700    1.000
    C56      C        0.20380    0.89020    0.41460    1.000
    H34      H        0.16180    0.86750    0.39300    1.000
    C57      C        0.20540    0.82780    0.50460    1.000
    C58      C        0.71230    0.50750    0.15140    1.000
    C59      C        0.68610    0.38970    0.91800    1.000
    H35      H        0.64420    0.41210    0.89580    1.000
    C60      C        0.32550    0.95920    0.47370    1.000
    H36      H        0.36760    0.98210    0.49390    1.000
    C61      C        0.97340    0.64630    0.38360    1.000
    H37      H        0.95610    0.63850    0.34390    1.000
    C62      C        0.80790    0.31980    0.97860    1.000
    H38      H        0.84940    0.29550    0.99950    1.000
    C63      C        0.96700    0.62470    0.46850    1.000
    H39      H        0.94480    0.60220    0.48890    1.000
    C64      C        0.50200    0.57250    0.90630    1.000
    H40      H        0.51950    0.54240    0.88530    1.000
    C65      C        0.80700    0.49470    0.24170    1.000
    H41      H        0.85120    0.47780    0.26260    1.000
    C66      C        0.30210    0.80150    0.68440    1.000
    H42      H        0.32400    0.83340    0.66780    1.000
    C67      C        0.44420    0.61690    0.87890    1.000
    H43      H        0.42530    0.61930    0.83880    1.000
    C68      C        0.24550    0.70490    0.73670    1.000
    H44      H        0.22650    0.67010    0.75430    1.000
    C69      C        0.71190    0.55330    0.23960    1.000
    H45      H        0.68900    0.57760    0.25870    1.000
    C70      C        0.77820    0.48320    0.18280    1.000
    H46      H        0.80240    0.45960    0.16460    1.000
    C71      C        0.21500    0.71140    0.67720    1.000
    H47      H        0.17650    0.68200    0.65530    1.000
    C72      C        0.32850    0.79190    0.74400    1.000
    H48      H        0.36790    0.81930    0.76660    1.000
    N13      N        0.93940    0.61640    0.41130    1.000
    N14      N        0.29540    0.96980    0.41660    1.000
    N15      N        0.30080    0.74600    0.77040    1.000
    N16      N        0.15290    0.73270    0.55850    1.000
    N17      N        0.23780    0.82240    0.56210    1.000
    N18      N        0.14790    0.78970    0.47190    1.000
    N19      N        0.41350    0.65710    0.90640    1.000
    N20      N        0.77970    0.31300    0.92120    1.000
    N21      N        0.77560    0.52880    0.27100    1.000
    N22      N        0.62270    0.53730    0.05800    1.000
    N23      N        0.62610    0.48770    0.97260    1.000
    N24      N        0.71140    0.45010    0.06410    1.000
    Ag5      Ag       0.65573    0.04257    0.13237    1.000
    Ag6      Ag       0.17734    0.24623    0.63295    1.000
    C73      C        0.90230    0.02930    0.49970    1.000
    C74      C        0.72250    0.86190    0.49130    1.000
    H49      H        0.70170    0.86540    0.45120    1.000
    C75      C        0.37630    0.24320    0.99850    1.000
    C76      C        0.44020    0.19830    0.03090    1.000
    C77      C        0.26450    0.43560    0.11180    1.000
    H50      H        0.28630    0.44270    0.15160    1.000
    C78      C        0.20220    0.41610    0.99530    1.000
    H51      H        0.18000    0.41210    0.95530    1.000
    C79      C        0.05610    0.15630    0.53580    1.000
    H52      H        0.07610    0.18430    0.51580    1.000
    C80      C        0.78010    0.84730    0.60830    1.000
    H53      H        0.80010    0.84250    0.64830    1.000
    C81      C        0.46710    0.18810    0.08970    1.000
    H54      H        0.44560    0.20910    0.11110    1.000
    C82      C        0.29020    0.27330    0.91320    1.000
    C83      C        0.99640    0.11580    0.50420    1.000
    H55      H        0.97680    0.11710    0.46400    1.000
    C84      C        0.25650    0.26330    0.84910    1.000
    C85      C        0.81980    0.99770    0.41260    1.000
    C86      C        0.81770    0.94820    0.49370    1.000
    C87      C        0.82070    0.04390    0.31930    1.000
    H56      H        0.86460    0.06200    0.33930    1.000
    C88      C        0.96660    0.07360    0.53390    1.000
    C89      C        0.47390    0.16450    0.00090    1.000
    H57      H        0.45650    0.16880    0.96090    1.000
    C90      C        0.26430    0.37890    0.02590    1.000
    C91      C        0.78490    0.89850    0.52300    1.000
    C92      C        0.29620    0.39020    0.08540    1.000
    H58      H        0.33820    0.36750    0.10700    1.000
    C93      C        0.29460    0.32780    0.99540    1.000
    C94      C        0.78770    0.00750    0.34860    1.000
    C95      C        0.81390    0.88970    0.58200    1.000
    H59      H        0.85580    0.91210    0.60420    1.000
    C96      C        0.17450    0.45920    0.02630    1.000
    H60      H        0.13240    0.48210    0.00610    1.000
    C97      C        0.52660    0.14630    0.11640    1.000
    H61      H        0.54390    0.13850    0.15610    1.000
    C98      C        0.69210    0.81980    0.52140    1.000
    H62      H        0.65060    0.79550    0.50050    1.000
    C99      C        0.53300    0.12470    0.03150    1.000
    H63      H        0.55520    0.10220    0.01110    1.000
    C100     C        0.99800    0.07250    0.59370    1.000
    H64      H        0.98050    0.04240    0.61470    1.000
    C101     C        0.69300    0.99470    0.25830    1.000
    H65      H        0.64880    0.97780    0.23740    1.000
    C102     C        0.19790    0.30150    0.81560    1.000
    H66      H        0.17600    0.33340    0.83220    1.000
    C103     C        0.05580    0.11690    0.62110    1.000
    H67      H        0.07470    0.11930    0.66120    1.000
    C104     C        0.25450    0.20490    0.76330    1.000
    H68      H        0.27350    0.17010    0.74570    1.000
    C105     C        0.78810    0.05330    0.26040    1.000
    H69      H        0.81100    0.07760    0.24130    1.000
    C106     C        0.72180    0.98320    0.31720    1.000
    H70      H        0.69760    0.95960    0.33540    1.000
    C107     C        0.28500    0.21140    0.82280    1.000
    H71      H        0.32350    0.18200    0.84470    1.000
    C108     C        0.17150    0.29190    0.75600    1.000
    H72      H        0.13210    0.31930    0.73340    1.000
    N25      N        0.56060    0.11640    0.08870    1.000
    N26      N        0.20460    0.46980    0.08340    1.000
    N27      N        0.19920    0.24600    0.72960    1.000
    N28      N        0.34710    0.23270    0.94150    1.000
    N29      N        0.26220    0.32240    0.93790    1.000
    N30      N        0.35210    0.28970    0.02810    1.000
    N31      N        0.08650    0.15710    0.59360    1.000
    N32      N        0.72030    0.81300    0.57880    1.000
    N33      N        0.72440    0.02880    0.22900    1.000
    N34      N        0.87730    0.03730    0.44200    1.000
    N35      N        0.87390    0.98770    0.52740    1.000
    N36      N        0.78860    0.95010    0.43590    1.000
    Ag7      Ag       0.15573    0.54257    0.13237    1.000
    Ag8      Ag       0.67734    0.74623    0.63295    1.000
    C109     C        0.40230    0.52930    0.49970    1.000
    C110     C        0.22250    0.36190    0.49130    1.000
    H73      H        0.20170    0.36540    0.45120    1.000
    C111     C        0.87630    0.74320    0.99850    1.000
    C112     C        0.94020    0.69830    0.03090    1.000
    C113     C        0.76450    0.93560    0.11180    1.000
    H74      H        0.78630    0.94270    0.15160    1.000
    C114     C        0.70220    0.91610    0.99530    1.000
    H75      H        0.68000    0.91210    0.95530    1.000
    C115     C        0.55610    0.65630    0.53580    1.000
    H76      H        0.57610    0.68430    0.51580    1.000
    C116     C        0.28010    0.34730    0.60830    1.000
    H77      H        0.30010    0.34250    0.64830    1.000
    C117     C        0.96710    0.68810    0.08970    1.000
    H78      H        0.94560    0.70910    0.11110    1.000
    C118     C        0.79020    0.77330    0.91320    1.000
    C119     C        0.49640    0.61580    0.50420    1.000
    H79      H        0.47680    0.61710    0.46400    1.000
    C120     C        0.75650    0.76330    0.84910    1.000
    C121     C        0.31980    0.49770    0.41260    1.000
    C122     C        0.31770    0.44820    0.49370    1.000
    C123     C        0.32070    0.54390    0.31930    1.000
    H80      H        0.36460    0.56200    0.33930    1.000
    C124     C        0.46660    0.57360    0.53390    1.000
    C125     C        0.97390    0.66450    0.00090    1.000
    H81      H        0.95650    0.66880    0.96090    1.000
    C126     C        0.76430    0.87890    0.02590    1.000
    C127     C        0.28490    0.39850    0.52300    1.000
    C128     C        0.79620    0.89020    0.08540    1.000
    H82      H        0.83820    0.86750    0.10700    1.000
    C129     C        0.79460    0.82780    0.99540    1.000
    C130     C        0.28770    0.50750    0.34860    1.000
    C131     C        0.31390    0.38970    0.58200    1.000
    H83      H        0.35580    0.41210    0.60420    1.000
    C132     C        0.67450    0.95920    0.02630    1.000
    H84      H        0.63240    0.98210    0.00610    1.000
    C133     C        0.02660    0.64630    0.11640    1.000
    H85      H        0.04390    0.63850    0.15610    1.000
    C134     C        0.19210    0.31980    0.52140    1.000
    H86      H        0.15060    0.29550    0.50050    1.000
    C135     C        0.03300    0.62470    0.03150    1.000
    H87      H        0.05520    0.60220    0.01110    1.000
    C136     C        0.49800    0.57250    0.59370    1.000
    H88      H        0.48050    0.54240    0.61470    1.000
    C137     C        0.19300    0.49470    0.25830    1.000
    H89      H        0.14880    0.47780    0.23740    1.000
    C138     C        0.69790    0.80150    0.81560    1.000
    H90      H        0.67600    0.83340    0.83220    1.000
    C139     C        0.55580    0.61690    0.62110    1.000
    H91      H        0.57470    0.61930    0.66120    1.000
    C140     C        0.75450    0.70490    0.76330    1.000
    H92      H        0.77350    0.67010    0.74570    1.000
    C141     C        0.28810    0.55330    0.26040    1.000
    H93      H        0.31100    0.57760    0.24130    1.000
    C142     C        0.22180    0.48320    0.31720    1.000
    H94      H        0.19760    0.45960    0.33540    1.000
    C143     C        0.78500    0.71140    0.82280    1.000
    H95      H        0.82350    0.68200    0.84470    1.000
    C144     C        0.67150    0.79190    0.75600    1.000
    H96      H        0.63210    0.81930    0.73340    1.000
    N37      N        0.06060    0.61640    0.08870    1.000
    N38      N        0.70460    0.96980    0.08340    1.000
    N39      N        0.69920    0.74600    0.72960    1.000
    N40      N        0.84710    0.73270    0.94150    1.000
    N41      N        0.76220    0.82240    0.93790    1.000
    N42      N        0.85210    0.78970    0.02810    1.000
    N43      N        0.58650    0.65710    0.59360    1.000
    N44      N        0.22030    0.31300    0.57880    1.000
    N45      N        0.22440    0.52880    0.22900    1.000
    N46      N        0.37730    0.53730    0.44200    1.000
    N47      N        0.37390    0.48770    0.52740    1.000
    N48      N        0.28860    0.45010    0.43590    1.000
    Ag9      Ag       0.65573    0.95743    0.63237    1.000
    Ag10     Ag       0.17734    0.75377    0.13295    1.000
    C145     C        0.90230    0.97070    0.99970    1.000
    C146     C        0.72250    0.13810    0.99130    1.000
    H97      H        0.70170    0.13460    0.95120    1.000
    C147     C        0.37630    0.75680    0.49850    1.000
    C148     C        0.44020    0.80170    0.53090    1.000
    C149     C        0.26450    0.56440    0.61180    1.000
    H98      H        0.28630    0.55730    0.65160    1.000
    C150     C        0.20220    0.58390    0.49530    1.000
    H99      H        0.18000    0.58790    0.45530    1.000
    C151     C        0.05610    0.84370    0.03580    1.000
    H100     H        0.07610    0.81570    0.01580    1.000
    C152     C        0.78010    0.15270    0.10830    1.000
    H101     H        0.80010    0.15750    0.14830    1.000
    C153     C        0.46710    0.81190    0.58970    1.000
    H102     H        0.44560    0.79090    0.61110    1.000
    C154     C        0.29020    0.72670    0.41320    1.000
    C155     C        0.99640    0.88420    0.00420    1.000
    H103     H        0.97680    0.88290    0.96400    1.000
    C156     C        0.25650    0.73670    0.34910    1.000
    C157     C        0.81980    0.00230    0.91260    1.000
    C158     C        0.81770    0.05180    0.99370    1.000
    C159     C        0.82070    0.95610    0.81930    1.000
    H104     H        0.86460    0.93800    0.83930    1.000
    C160     C        0.96660    0.92640    0.03390    1.000
    C161     C        0.47390    0.83550    0.50090    1.000
    H105     H        0.45650    0.83120    0.46090    1.000
    C162     C        0.26430    0.62110    0.52590    1.000
    C163     C        0.78490    0.10150    0.02300    1.000
    C164     C        0.29620    0.60980    0.58540    1.000
    H106     H        0.33820    0.63250    0.60700    1.000
    C165     C        0.29460    0.67220    0.49540    1.000
    C166     C        0.78770    0.99250    0.84860    1.000
    C167     C        0.81390    0.11030    0.08200    1.000
    H107     H        0.85580    0.08790    0.10420    1.000
    C168     C        0.17450    0.54080    0.52630    1.000
    H108     H        0.13240    0.51790    0.50610    1.000
    C169     C        0.52660    0.85370    0.61640    1.000
    H109     H        0.54390    0.86150    0.65610    1.000
    C170     C        0.69210    0.18020    0.02140    1.000
    H110     H        0.65060    0.20450    0.00050    1.000
    C171     C        0.53300    0.87530    0.53150    1.000
    H111     H        0.55520    0.89780    0.51110    1.000
    C172     C        0.99800    0.92750    0.09370    1.000
    H112     H        0.98050    0.95760    0.11470    1.000
    C173     C        0.69300    0.00530    0.75830    1.000
    H113     H        0.64880    0.02220    0.73740    1.000
    C174     C        0.19790    0.69850    0.31560    1.000
    H114     H        0.17600    0.66660    0.33220    1.000
    C175     C        0.05580    0.88310    0.12110    1.000
    H115     H        0.07470    0.88070    0.16120    1.000
    C176     C        0.25450    0.79510    0.26330    1.000
    H116     H        0.27350    0.82990    0.24570    1.000
    C177     C        0.78810    0.94670    0.76040    1.000
    H117     H        0.81100    0.92240    0.74130    1.000
    C178     C        0.72180    0.01680    0.81720    1.000
    H118     H        0.69760    0.04040    0.83540    1.000
    C179     C        0.28500    0.78860    0.32280    1.000
    H119     H        0.32350    0.81800    0.34470    1.000
    C180     C        0.17150    0.70810    0.25600    1.000
    H120     H        0.13210    0.68070    0.23340    1.000
    N49      N        0.56060    0.88360    0.58870    1.000
    N50      N        0.20460    0.53020    0.58340    1.000
    N51      N        0.19920    0.75400    0.22960    1.000
    N52      N        0.34710    0.76730    0.44150    1.000
    N53      N        0.26220    0.67760    0.43790    1.000
    N54      N        0.35210    0.71030    0.52810    1.000
    N55      N        0.08650    0.84290    0.09360    1.000
    N56      N        0.72030    0.18700    0.07880    1.000
    N57      N        0.72440    0.97120    0.72900    1.000
    N58      N        0.87730    0.96270    0.94200    1.000
    N59      N        0.87390    0.01230    0.02740    1.000
    N60      N        0.78860    0.04990    0.93590    1.000
    Ag11     Ag       0.15573    0.45743    0.63237    1.000
    Ag12     Ag       0.67734    0.25377    0.13295    1.000
    C181     C        0.40230    0.47070    0.99970    1.000
    C182     C        0.22250    0.63810    0.99130    1.000
    H121     H        0.20170    0.63460    0.95120    1.000
    C183     C        0.87630    0.25680    0.49850    1.000
    C184     C        0.94020    0.30170    0.53090    1.000
    C185     C        0.76450    0.06440    0.61180    1.000
    H122     H        0.78630    0.05730    0.65160    1.000
    C186     C        0.70220    0.08390    0.49530    1.000
    H123     H        0.68000    0.08790    0.45530    1.000
    C187     C        0.55610    0.34370    0.03580    1.000
    H124     H        0.57610    0.31570    0.01580    1.000
    C188     C        0.28010    0.65270    0.10830    1.000
    H125     H        0.30010    0.65750    0.14830    1.000
    C189     C        0.96710    0.31190    0.58970    1.000
    H126     H        0.94560    0.29090    0.61110    1.000
    C190     C        0.79020    0.22670    0.41320    1.000
    C191     C        0.49640    0.38420    0.00420    1.000
    H127     H        0.47680    0.38290    0.96400    1.000
    C192     C        0.75650    0.23670    0.34910    1.000
    C193     C        0.31980    0.50230    0.91260    1.000
    C194     C        0.31770    0.55180    0.99370    1.000
    C195     C        0.32070    0.45610    0.81930    1.000
    H128     H        0.36460    0.43800    0.83930    1.000
    C196     C        0.46660    0.42640    0.03390    1.000
    C197     C        0.97390    0.33550    0.50090    1.000
    H129     H        0.95650    0.33120    0.46090    1.000
    C198     C        0.76430    0.12110    0.52590    1.000
    C199     C        0.28490    0.60150    0.02300    1.000
    C200     C        0.79620    0.10980    0.58540    1.000
    H130     H        0.83820    0.13250    0.60700    1.000
    C201     C        0.79460    0.17220    0.49540    1.000
    C202     C        0.28770    0.49250    0.84860    1.000
    C203     C        0.31390    0.61030    0.08200    1.000
    H131     H        0.35580    0.58790    0.10420    1.000
    C204     C        0.67450    0.04080    0.52630    1.000
    H132     H        0.63240    0.01790    0.50610    1.000
    C205     C        0.02660    0.35370    0.61640    1.000
    H133     H        0.04390    0.36150    0.65610    1.000
    C206     C        0.19210    0.68020    0.02140    1.000
    H134     H        0.15060    0.70450    0.00050    1.000
    C207     C        0.03300    0.37530    0.53150    1.000
    H135     H        0.05520    0.39780    0.51110    1.000
    C208     C        0.49800    0.42750    0.09370    1.000
    H136     H        0.48050    0.45760    0.11470    1.000
    C209     C        0.19300    0.50530    0.75830    1.000
    H137     H        0.14880    0.52220    0.73740    1.000
    C210     C        0.69790    0.19850    0.31560    1.000
    H138     H        0.67600    0.16660    0.33220    1.000
    C211     C        0.55580    0.38310    0.12110    1.000
    H139     H        0.57470    0.38070    0.16120    1.000
    C212     C        0.75450    0.29510    0.26330    1.000
    H140     H        0.77350    0.32990    0.24570    1.000
    C213     C        0.28810    0.44670    0.76040    1.000
    H141     H        0.31100    0.42240    0.74130    1.000
    C214     C        0.22180    0.51680    0.81720    1.000
    H142     H        0.19760    0.54040    0.83540    1.000
    C215     C        0.78500    0.28860    0.32280    1.000
    H143     H        0.82350    0.31800    0.34470    1.000
    C216     C        0.67150    0.20810    0.25600    1.000
    H144     H        0.63210    0.18070    0.23340    1.000
    N61      N        0.06060    0.38360    0.58870    1.000
    N62      N        0.70460    0.03020    0.58340    1.000
    N63      N        0.69920    0.25400    0.22960    1.000
    N64      N        0.84710    0.26730    0.44150    1.000
    N65      N        0.76220    0.17760    0.43790    1.000
    N66      N        0.85210    0.21030    0.52810    1.000
    N67      N        0.58650    0.34290    0.09360    1.000
    N68      N        0.22030    0.68700    0.07880    1.000
    N69      N        0.22440    0.47120    0.72900    1.000
    N70      N        0.37730    0.46270    0.94200    1.000
    N71      N        0.37390    0.51230    0.02740    1.000
    N72      N        0.28860    0.54990    0.93590    1.000
    Ag13     Ag       0.34427    0.95743    0.86763    1.000
    Ag14     Ag       0.82266    0.75377    0.36705    1.000
    C217     C        0.09770    0.97070    0.50030    1.000
    C218     C        0.27750    0.13810    0.50870    1.000
    H145     H        0.29830    0.13460    0.54880    1.000
    C219     C        0.62370    0.75680    0.00150    1.000
    C220     C        0.55980    0.80170    0.96910    1.000
    C221     C        0.73550    0.56440    0.88820    1.000
    H146     H        0.71370    0.55730    0.84840    1.000
    C222     C        0.79780    0.58390    0.00470    1.000
    H147     H        0.82000    0.58790    0.04470    1.000
    C223     C        0.94390    0.84370    0.46420    1.000
    H148     H        0.92390    0.81570    0.48420    1.000
    C224     C        0.21990    0.15270    0.39170    1.000
    H149     H        0.19990    0.15750    0.35170    1.000
    C225     C        0.53290    0.81190    0.91030    1.000
    H150     H        0.55440    0.79090    0.88890    1.000
    C226     C        0.70980    0.72670    0.08680    1.000
    C227     C        0.00360    0.88420    0.49580    1.000
    H151     H        0.02320    0.88290    0.53600    1.000
    C228     C        0.74350    0.73670    0.15090    1.000
    C229     C        0.18020    0.00230    0.58740    1.000
    C230     C        0.18230    0.05180    0.50630    1.000
    C231     C        0.17930    0.95610    0.68070    1.000
    H152     H        0.13540    0.93800    0.66070    1.000
    C232     C        0.03340    0.92640    0.46610    1.000
    C233     C        0.52610    0.83550    0.99910    1.000
    H153     H        0.54350    0.83120    0.03910    1.000
    C234     C        0.73570    0.62110    0.97410    1.000
    C235     C        0.21510    0.10150    0.47700    1.000
    C236     C        0.70380    0.60980    0.91460    1.000
    H154     H        0.66180    0.63250    0.89300    1.000
    C237     C        0.70540    0.67220    0.00460    1.000
    C238     C        0.21230    0.99250    0.65140    1.000
    C239     C        0.18610    0.11030    0.41800    1.000
    H155     H        0.14420    0.08790    0.39580    1.000
    C240     C        0.82550    0.54080    0.97370    1.000
    H156     H        0.86760    0.51790    0.99390    1.000
    C241     C        0.47340    0.85370    0.88360    1.000
    H157     H        0.45610    0.86150    0.84390    1.000
    C242     C        0.30790    0.18020    0.47860    1.000
    H158     H        0.34940    0.20450    0.49950    1.000
    C243     C        0.46700    0.87530    0.96850    1.000
    H159     H        0.44480    0.89780    0.98890    1.000
    C244     C        0.00200    0.92750    0.40630    1.000
    H160     H        0.01950    0.95760    0.38530    1.000
    C245     C        0.30700    0.00530    0.74170    1.000
    H161     H        0.35120    0.02220    0.76260    1.000
    C246     C        0.80210    0.69850    0.18440    1.000
    H162     H        0.82400    0.66660    0.16780    1.000
    C247     C        0.94420    0.88310    0.37890    1.000
    H163     H        0.92530    0.88070    0.33880    1.000
    C248     C        0.74550    0.79510    0.23670    1.000
    H164     H        0.72650    0.82990    0.25430    1.000
    C249     C        0.21190    0.94670    0.73960    1.000
    H165     H        0.18900    0.92240    0.75870    1.000
    C250     C        0.27820    0.01680    0.68280    1.000
    H166     H        0.30240    0.04040    0.66460    1.000
    C251     C        0.71500    0.78860    0.17720    1.000
    H167     H        0.67650    0.81800    0.15530    1.000
    C252     C        0.82850    0.70810    0.24400    1.000
    H168     H        0.86790    0.68070    0.26660    1.000
    N73      N        0.43940    0.88360    0.91130    1.000
    N74      N        0.79540    0.53020    0.91660    1.000
    N75      N        0.80080    0.75400    0.27040    1.000
    N76      N        0.65290    0.76730    0.05850    1.000
    N77      N        0.73780    0.67760    0.06210    1.000
    N78      N        0.64790    0.71030    0.97190    1.000
    N79      N        0.91350    0.84290    0.40640    1.000
    N80      N        0.27970    0.18700    0.42120    1.000
    N81      N        0.27560    0.97120    0.77100    1.000
    N82      N        0.12270    0.96270    0.55800    1.000
    N83      N        0.12610    0.01230    0.47260    1.000
    N84      N        0.21140    0.04990    0.56410    1.000
    Ag15     Ag       0.84427    0.45743    0.86763    1.000
    Ag16     Ag       0.32266    0.25377    0.36705    1.000
    C253     C        0.59770    0.47070    0.50030    1.000
    C254     C        0.77750    0.63810    0.50870    1.000
    H169     H        0.79830    0.63460    0.54880    1.000
    C255     C        0.12370    0.25680    0.00150    1.000
    C256     C        0.05980    0.30170    0.96910    1.000
    C257     C        0.23550    0.06440    0.88820    1.000
    H170     H        0.21370    0.05730    0.84840    1.000
    C258     C        0.29780    0.08390    0.00470    1.000
    H171     H        0.32000    0.08790    0.04470    1.000
    C259     C        0.44390    0.34370    0.46420    1.000
    H172     H        0.42390    0.31570    0.48420    1.000
    C260     C        0.71990    0.65270    0.39170    1.000
    H173     H        0.69990    0.65750    0.35170    1.000
    C261     C        0.03290    0.31190    0.91030    1.000
    H174     H        0.05440    0.29090    0.88890    1.000
    C262     C        0.20980    0.22670    0.08680    1.000
    C263     C        0.50360    0.38420    0.49580    1.000
    H175     H        0.52320    0.38290    0.53600    1.000
    C264     C        0.24350    0.23670    0.15090    1.000
    C265     C        0.68020    0.50230    0.58740    1.000
    C266     C        0.68230    0.55180    0.50630    1.000
    C267     C        0.67930    0.45610    0.68070    1.000
    H176     H        0.63540    0.43800    0.66070    1.000
    C268     C        0.53340    0.42640    0.46610    1.000
    C269     C        0.02610    0.33550    0.99910    1.000
    H177     H        0.04350    0.33120    0.03910    1.000
    C270     C        0.23570    0.12110    0.97410    1.000
    C271     C        0.71510    0.60150    0.47700    1.000
    C272     C        0.20380    0.10980    0.91460    1.000
    H178     H        0.16180    0.13250    0.89300    1.000
    C273     C        0.20540    0.17220    0.00460    1.000
    C274     C        0.71230    0.49250    0.65140    1.000
    C275     C        0.68610    0.61030    0.41800    1.000
    H179     H        0.64420    0.58790    0.39580    1.000
    C276     C        0.32550    0.04080    0.97370    1.000
    H180     H        0.36760    0.01790    0.99390    1.000
    C277     C        0.97340    0.35370    0.88360    1.000
    H181     H        0.95610    0.36150    0.84390    1.000
    C278     C        0.80790    0.68020    0.47860    1.000
    H182     H        0.84940    0.70450    0.49950    1.000
    C279     C        0.96700    0.37530    0.96850    1.000
    H183     H        0.94480    0.39780    0.98890    1.000
    C280     C        0.50200    0.42750    0.40630    1.000
    H184     H        0.51950    0.45760    0.38530    1.000
    C281     C        0.80700    0.50530    0.74170    1.000
    H185     H        0.85120    0.52220    0.76260    1.000
    C282     C        0.30210    0.19850    0.18440    1.000
    H186     H        0.32400    0.16660    0.16780    1.000
    C283     C        0.44420    0.38310    0.37890    1.000
    H187     H        0.42530    0.38070    0.33880    1.000
    C284     C        0.24550    0.29510    0.23670    1.000
    H188     H        0.22650    0.32990    0.25430    1.000
    C285     C        0.71190    0.44670    0.73960    1.000
    H189     H        0.68900    0.42240    0.75870    1.000
    C286     C        0.77820    0.51680    0.68280    1.000
    H190     H        0.80240    0.54040    0.66460    1.000
    C287     C        0.21500    0.28860    0.17720    1.000
    H191     H        0.17650    0.31800    0.15530    1.000
    C288     C        0.32850    0.20810    0.24400    1.000
    H192     H        0.36790    0.18070    0.26660    1.000
    N85      N        0.93940    0.38360    0.91130    1.000
    N86      N        0.29540    0.03020    0.91660    1.000
    N87      N        0.30080    0.25400    0.27040    1.000
    N88      N        0.15290    0.26730    0.05850    1.000
    N89      N        0.23780    0.17760    0.06210    1.000
    N90      N        0.14790    0.21030    0.97190    1.000
    N91      N        0.41350    0.34290    0.40640    1.000
    N92      N        0.77970    0.68700    0.42120    1.000
    N93      N        0.77560    0.47120    0.77100    1.000
    N94      N        0.62270    0.46270    0.55800    1.000
    N95      N        0.62610    0.51230    0.47260    1.000
    N96      N        0.71140    0.54990    0.56410    1.000
