# CIF file generated by openbabel 3.1.0, see https://openbabel.org
data_I
_chemical_name_common 'GUBVUU_clean'
_cell_length_a 10.798
_cell_length_b 15.8375
_cell_length_c 15.8375
_cell_angle_alpha 94.8089
_cell_angle_beta 103.458
_cell_angle_gamma 103.458
_space_group_name_H-M_alt 'P 1'
_space_group_name_Hall 'P 1'
loop_
    _symmetry_equiv_pos_as_xyz
    x,y,z
loop_
    _atom_site_label
    _atom_site_type_symbol
    _atom_site_fract_x
    _atom_site_fract_y
    _atom_site_fract_z
    _atom_site_occupancy
    Co1      Co       0.04150    0.93370    0.77210    1.000
    Co2      Co       0.27970    0.42200    0.26060    1.000
    Co3      Co       0.54150    0.77210    0.93370    1.000
    Co4      Co       0.77970    0.26060    0.42200    1.000
    H1       H        0.82840    0.76380    0.94600    1.000
    H2       H        0.74750    0.86410    0.70250    1.000
    H3       H        0.16830    0.30280    0.08420    1.000
    H4       H        0.25230    0.55230    0.13970    1.000
    H5       H        0.11840    0.63000    0.06660    1.000
    H6       H        0.01510    0.44200    0.25680    1.000
    H7       H        0.45280    0.72610    0.44970    1.000
    H8       H        0.59250    0.76550    0.60110    1.000
    H9       H        0.73590    0.60880    0.42520    1.000
    H10      H        0.30880    0.60950    0.34970    1.000
    H11      H        0.02370    0.84050    0.58850    1.000
    H12      H        0.87240    0.74110    0.48230    1.000
    H13      H        0.57910    0.49280    0.33040    1.000
    H14      H        0.96350    0.68360    0.99800    1.000
    H15      H        0.85800    0.06460    0.95360    1.000
    H16      H        0.55900    0.62220    0.05120    1.000
    H17      H        0.83930    0.49270    0.17730    1.000
    H18      H        0.66740    0.88190    0.11210    1.000
    H19      H        0.00660    0.18420    0.01280    1.000
    H20      H        0.10110    0.25670    0.30330    1.000
    H21      H        0.80310    0.01570    0.18010    1.000
    H22      H        0.90700    0.14740    0.23640    1.000
    H23      H        0.76070    0.92080    0.89400    1.000
    H24      H        0.71550    0.54860    0.09540    1.000
    H25      H        0.32840    0.94600    0.76380    1.000
    H26      H        0.24750    0.70250    0.86410    1.000
    H27      H        0.66830    0.08420    0.30280    1.000
    H28      H        0.75230    0.13970    0.55230    1.000
    H29      H        0.61840    0.06660    0.63000    1.000
    H30      H        0.51510    0.25680    0.44200    1.000
    H31      H        0.95280    0.44970    0.72610    1.000
    H32      H        0.09250    0.60110    0.76550    1.000
    H33      H        0.23590    0.42520    0.60880    1.000
    H34      H        0.80880    0.34970    0.60950    1.000
    H35      H        0.52370    0.58850    0.84050    1.000
    H36      H        0.37240    0.48230    0.74110    1.000
    H37      H        0.07910    0.33040    0.49280    1.000
    H38      H        0.46350    0.99800    0.68360    1.000
    H39      H        0.35800    0.95360    0.06460    1.000
    H40      H        0.05900    0.05120    0.62220    1.000
    H41      H        0.33930    0.17730    0.49270    1.000
    H42      H        0.16740    0.11210    0.88190    1.000
    H43      H        0.50660    0.01280    0.18420    1.000
    H44      H        0.60110    0.30330    0.25670    1.000
    H45      H        0.30310    0.18010    0.01570    1.000
    H46      H        0.40700    0.23640    0.14740    1.000
    H47      H        0.26070    0.89400    0.92080    1.000
    H48      H        0.21550    0.09540    0.54860    1.000
    C1       C        0.80110    0.72030    0.97870    1.000
    C2       C        0.77240    0.83760    0.65680    1.000
    C3       C        0.11720    0.27030    0.11610    1.000
    C4       C        0.16850    0.54400    0.14880    1.000
    C5       C        0.09050    0.59170    0.10390    1.000
    C6       C        0.96020    0.13780    0.11560    1.000
    C7       C        0.86580    0.05200    0.07340    1.000
    C8       C        0.70660    0.73730    0.51770    1.000
    C9       C        0.60870    0.67180    0.44860    1.000
    C10      C        0.03060    0.47740    0.21440    1.000
    C11      C        0.87080    0.62230    0.07490    1.000
    C12      C        0.96810    0.57780    0.11920    1.000
    C13      C        0.47980    0.67950    0.42690    1.000
    C14      C        0.67830    0.77960    0.59500    1.000
    C15      C        0.64710    0.60810    0.41230    1.000
    C16      C        0.39680    0.60830    0.36710    1.000
    C17      C        0.93620    0.82500    0.59100    1.000
    C18      C        0.84210    0.76570    0.52630    1.000
    C19      C        0.55270    0.53930    0.35390    1.000
    C20      C        0.88580    0.67600    0.01560    1.000
    C21      C        0.83140    0.02470    0.98990    1.000
    C22      C        0.64090    0.63840    0.03940    1.000
    C23      C        0.92520    0.51090    0.17210    1.000
    C24      C        0.70970    0.91860    0.07880    1.000
    C25      C        0.02520    0.19560    0.07360    1.000
    C26      C        0.07350    0.24520    0.24240    1.000
    C27      C        0.79400    0.99810    0.12090    1.000
    C28      C        0.96730    0.17200    0.20620    1.000
    C29      C        0.75900    0.94180    0.95020    1.000
    C30      C        0.74210    0.59950    0.07170    1.000
    C31      C        0.30110    0.97870    0.72030    1.000
    C32      C        0.27240    0.65680    0.83760    1.000
    C33      C        0.61720    0.11610    0.27030    1.000
    C34      C        0.66850    0.14880    0.54400    1.000
    C35      C        0.59050    0.10390    0.59170    1.000
    C36      C        0.46020    0.11560    0.13780    1.000
    C37      C        0.36580    0.07340    0.05200    1.000
    C38      C        0.20660    0.51770    0.73730    1.000
    C39      C        0.10870    0.44860    0.67180    1.000
    C40      C        0.53060    0.21440    0.47740    1.000
    C41      C        0.37080    0.07490    0.62230    1.000
    C42      C        0.46810    0.11920    0.57780    1.000
    C43      C        0.97980    0.42690    0.67950    1.000
    C44      C        0.17830    0.59500    0.77960    1.000
    C45      C        0.14710    0.41230    0.60810    1.000
    C46      C        0.89680    0.36710    0.60830    1.000
    C47      C        0.43620    0.59100    0.82500    1.000
    C48      C        0.34210    0.52630    0.76570    1.000
    C49      C        0.05270    0.35390    0.53930    1.000
    C50      C        0.38580    0.01560    0.67600    1.000
    C51      C        0.33140    0.98990    0.02470    1.000
    C52      C        0.14090    0.03940    0.63840    1.000
    C53      C        0.42520    0.17210    0.51090    1.000
    C54      C        0.20970    0.07880    0.91860    1.000
    C55      C        0.52520    0.07360    0.19560    1.000
    C56      C        0.57350    0.24240    0.24520    1.000
    C57      C        0.29400    0.12090    0.99810    1.000
    C58      C        0.46730    0.20620    0.17200    1.000
    C59      C        0.25900    0.95020    0.94180    1.000
    C60      C        0.24210    0.07170    0.59950    1.000
    N1       N        0.67100    0.70270    0.98830    1.000
    N2       N        0.89910    0.86000    0.65760    1.000
    N3       N        0.14150    0.49060    0.20040    1.000
    N4       N        0.42540    0.53890    0.33130    1.000
    N5       N        0.13800    0.29890    0.20010    1.000
    N6       N        0.68570    0.89170    0.99430    1.000
    N7       N        0.02330    0.78170    0.82810    1.000
    N8       N        0.30680    0.36930    0.41050    1.000
    N9       N        0.17100    0.98830    0.70270    1.000
    N10      N        0.39910    0.65760    0.86000    1.000
    N11      N        0.64150    0.20040    0.49060    1.000
    N12      N        0.92540    0.33130    0.53890    1.000
    N13      N        0.63800    0.20010    0.29890    1.000
    N14      N        0.18570    0.99430    0.89170    1.000
    N15      N        0.52330    0.82810    0.78170    1.000
    N16      N        0.80680    0.41050    0.36930    1.000
    O1       O        0.10080    0.81210    0.78330    1.000
    O2       O        0.22140    0.41280    0.38440    1.000
    O3       O        0.95020    0.83570    0.84330    1.000
    O4       O        0.36700    0.34780    0.35920    1.000
    O5       O        0.00380    0.71190    0.85410    1.000
    O6       O        0.31560    0.34640    0.48460    1.000
    O7       O        0.60080    0.78330    0.81210    1.000
    O8       O        0.72140    0.38440    0.41280    1.000
    O9       O        0.45020    0.84330    0.83570    1.000
    O10      O        0.86700    0.35920    0.34780    1.000
    O11      O        0.50380    0.85410    0.71190    1.000
    O12      O        0.81560    0.48460    0.34640    1.000
