# CIF file generated by openbabel 3.1.0, see https://openbabel.org
data_I
_chemical_name_common 'image0'
_cell_length_a 15.401
_cell_length_b 17.3812
_cell_length_c 15.0538
_cell_angle_alpha 90
_cell_angle_beta 120.435
_cell_angle_gamma 90
_space_group_name_H-M_alt 'P 1'
_space_group_name_Hall 'P 1'
loop_
    _symmetry_equiv_pos_as_xyz
    x,y,z
loop_
    _atom_site_label
    _atom_site_type_symbol
    _atom_site_fract_x
    _atom_site_fract_y
    _atom_site_fract_z
    _atom_site_occupancy
    Cd1      Cd       0.36611    0.36744    0.71423    1.000
    Br1      Br       0.63795    0.36721    0.30801    1.000
    Br2      Br       0.03682    0.40109    0.12956    1.000
    O1       O        0.44880    0.32964    0.88250    1.000
    O2       O        0.57610    0.28620    0.86540    1.000
    O3       O        0.40440    0.50730    0.57110    1.000
    O4       O        0.28450    0.42370    0.54970    1.000
    H1       H        0.52270    0.47050    0.80650    1.000
    N1       N        0.73850    0.22030    0.16680    1.000
    N2       N        0.28120    0.54490    0.26410    1.000
    C1       C        0.72480    0.25960    0.23520    1.000
    H2       H        0.76860    0.25120    0.30510    1.000
    C2       C        0.64810    0.31180    0.20540    1.000
    C3       C        0.58170    0.32570    0.10220    1.000
    H3       H        0.52850    0.36010    0.08110    1.000
    C4       C        0.59730    0.28650    0.03100    1.000
    C5       C        0.67620    0.23500    0.06640    1.000
    H4       H        0.68660    0.20920    0.01850    1.000
    C6       C        0.53510    0.30200    0.91710    1.000
    C7       C        0.19780    0.50680    0.19720    1.000
    H5       H        0.16980    0.51580    0.12700    1.000
    C8       C        0.15260    0.45480    0.22950    1.000
    C9       C        0.19070    0.44050    0.33280    1.000
    H6       H        0.16030    0.40520    0.35480    1.000
    C10      C        0.27580    0.48070    0.40250    1.000
    C11      C        0.31900    0.53150    0.36470    1.000
    H7       H        0.37720    0.55750    0.41160    1.000
    C12      C        0.32570    0.46920    0.51780    1.000
    Cd2      Cd       0.86611    0.86744    0.71423    1.000
    Br3      Br       0.13795    0.86721    0.30801    1.000
    Br4      Br       0.53682    0.90109    0.12956    1.000
    O5       O        0.94880    0.82964    0.88250    1.000
    O6       O        0.07610    0.78620    0.86540    1.000
    O7       O        0.90440    0.00730    0.57110    1.000
    O8       O        0.78450    0.92370    0.54970    1.000
    H8       H        0.02270    0.97050    0.80650    1.000
    N3       N        0.23850    0.72030    0.16680    1.000
    N4       N        0.78120    0.04490    0.26410    1.000
    C13      C        0.22480    0.75960    0.23520    1.000
    H9       H        0.26860    0.75120    0.30510    1.000
    C14      C        0.14810    0.81180    0.20540    1.000
    C15      C        0.08170    0.82570    0.10220    1.000
    H10      H        0.02850    0.86010    0.08110    1.000
    C16      C        0.09730    0.78650    0.03100    1.000
    C17      C        0.17620    0.73500    0.06640    1.000
    H11      H        0.18660    0.70920    0.01850    1.000
    C18      C        0.03510    0.80200    0.91710    1.000
    C19      C        0.69780    0.00680    0.19720    1.000
    H12      H        0.66980    0.01580    0.12700    1.000
    C20      C        0.65260    0.95480    0.22950    1.000
    C21      C        0.69070    0.94050    0.33280    1.000
    H13      H        0.66030    0.90520    0.35480    1.000
    C22      C        0.77580    0.98070    0.40250    1.000
    C23      C        0.81900    0.03150    0.36470    1.000
    H14      H        0.87720    0.05750    0.41160    1.000
    C24      C        0.82570    0.96920    0.51780    1.000
    Cd3      Cd       0.63389    0.36744    0.78577    1.000
    Br5      Br       0.36205    0.36721    0.19199    1.000
    Br6      Br       0.96318    0.40109    0.37044    1.000
    O9       O        0.55120    0.32964    0.61750    1.000
    O10      O        0.42390    0.28620    0.63460    1.000
    O11      O        0.59560    0.50730    0.92890    1.000
    O12      O        0.71550    0.42370    0.95030    1.000
    H15      H        0.47730    0.47050    0.69350    1.000
    N5       N        0.26150    0.22030    0.33320    1.000
    N6       N        0.71880    0.54490    0.23590    1.000
    C25      C        0.27520    0.25960    0.26480    1.000
    H16      H        0.23140    0.25120    0.19490    1.000
    C26      C        0.35190    0.31180    0.29460    1.000
    C27      C        0.41830    0.32570    0.39780    1.000
    H17      H        0.47150    0.36010    0.41890    1.000
    C28      C        0.40270    0.28650    0.46900    1.000
    C29      C        0.32380    0.23500    0.43360    1.000
    H18      H        0.31340    0.20920    0.48150    1.000
    C30      C        0.46490    0.30200    0.58290    1.000
    C31      C        0.80220    0.50680    0.30280    1.000
    H19      H        0.83020    0.51580    0.37300    1.000
    C32      C        0.84740    0.45480    0.27050    1.000
    C33      C        0.80930    0.44050    0.16720    1.000
    H20      H        0.83970    0.40520    0.14520    1.000
    C34      C        0.72420    0.48070    0.09750    1.000
    C35      C        0.68100    0.53150    0.13530    1.000
    H21      H        0.62280    0.55750    0.08840    1.000
    C36      C        0.67430    0.46920    0.98220    1.000
    Cd4      Cd       0.13389    0.86744    0.78577    1.000
    Br7      Br       0.86205    0.86721    0.19199    1.000
    Br8      Br       0.46318    0.90109    0.37044    1.000
    O13      O        0.05120    0.82964    0.61750    1.000
    O14      O        0.92390    0.78620    0.63460    1.000
    O15      O        0.09560    0.00730    0.92890    1.000
    O16      O        0.21550    0.92370    0.95030    1.000
    H22      H        0.97730    0.97050    0.69350    1.000
    N7       N        0.76150    0.72030    0.33320    1.000
    N8       N        0.21880    0.04490    0.23590    1.000
    C37      C        0.77520    0.75960    0.26480    1.000
    H23      H        0.73140    0.75120    0.19490    1.000
    C38      C        0.85190    0.81180    0.29460    1.000
    C39      C        0.91830    0.82570    0.39780    1.000
    H24      H        0.97150    0.86010    0.41890    1.000
    C40      C        0.90270    0.78650    0.46900    1.000
    C41      C        0.82380    0.73500    0.43360    1.000
    H25      H        0.81340    0.70920    0.48150    1.000
    C42      C        0.96490    0.80200    0.58290    1.000
    C43      C        0.30220    0.00680    0.30280    1.000
    H26      H        0.33020    0.01580    0.37300    1.000
    C44      C        0.34740    0.95480    0.27050    1.000
    C45      C        0.30930    0.94050    0.16720    1.000
    H27      H        0.33970    0.90520    0.14520    1.000
    C46      C        0.22420    0.98070    0.09750    1.000
    C47      C        0.18100    0.03150    0.13530    1.000
    H28      H        0.12280    0.05750    0.08840    1.000
    C48      C        0.17430    0.96920    0.98220    1.000
    Cd5      Cd       0.63389    0.63256    0.28577    1.000
    Br9      Br       0.36205    0.63279    0.69199    1.000
    Br10     Br       0.96318    0.59891    0.87044    1.000
    O17      O        0.55120    0.67036    0.11750    1.000
    O18      O        0.42390    0.71380    0.13460    1.000
    O19      O        0.59560    0.49270    0.42890    1.000
    O20      O        0.71550    0.57630    0.45030    1.000
    H29      H        0.47730    0.52950    0.19350    1.000
    N9       N        0.26150    0.77970    0.83320    1.000
    N10      N        0.71880    0.45510    0.73590    1.000
    C49      C        0.27520    0.74040    0.76480    1.000
    H30      H        0.23140    0.74880    0.69490    1.000
    C50      C        0.35190    0.68820    0.79460    1.000
    C51      C        0.41830    0.67430    0.89780    1.000
    H31      H        0.47150    0.63990    0.91890    1.000
    C52      C        0.40270    0.71350    0.96900    1.000
    C53      C        0.32380    0.76500    0.93360    1.000
    H32      H        0.31340    0.79080    0.98150    1.000
    C54      C        0.46490    0.69800    0.08290    1.000
    C55      C        0.80220    0.49320    0.80280    1.000
    H33      H        0.83020    0.48420    0.87300    1.000
    C56      C        0.84740    0.54520    0.77050    1.000
    C57      C        0.80930    0.55950    0.66720    1.000
    H34      H        0.83970    0.59480    0.64520    1.000
    C58      C        0.72420    0.51930    0.59750    1.000
    C59      C        0.68100    0.46850    0.63530    1.000
    H35      H        0.62280    0.44250    0.58840    1.000
    C60      C        0.67430    0.53080    0.48220    1.000
    Cd6      Cd       0.13389    0.13256    0.28577    1.000
    Br11     Br       0.86205    0.13279    0.69199    1.000
    Br12     Br       0.46318    0.09891    0.87044    1.000
    O21      O        0.05120    0.17036    0.11750    1.000
    O22      O        0.92390    0.21380    0.13460    1.000
    O23      O        0.09560    0.99270    0.42890    1.000
    O24      O        0.21550    0.07630    0.45030    1.000
    H36      H        0.97730    0.02950    0.19350    1.000
    N11      N        0.76150    0.27970    0.83320    1.000
    N12      N        0.21880    0.95510    0.73590    1.000
    C61      C        0.77520    0.24040    0.76480    1.000
    H37      H        0.73140    0.24880    0.69490    1.000
    C62      C        0.85190    0.18820    0.79460    1.000
    C63      C        0.91830    0.17430    0.89780    1.000
    H38      H        0.97150    0.13990    0.91890    1.000
    C64      C        0.90270    0.21350    0.96900    1.000
    C65      C        0.82380    0.26500    0.93360    1.000
    H39      H        0.81340    0.29080    0.98150    1.000
    C66      C        0.96490    0.19800    0.08290    1.000
    C67      C        0.30220    0.99320    0.80280    1.000
    H40      H        0.33020    0.98420    0.87300    1.000
    C68      C        0.34740    0.04520    0.77050    1.000
    C69      C        0.30930    0.05950    0.66720    1.000
    H41      H        0.33970    0.09480    0.64520    1.000
    C70      C        0.22420    0.01930    0.59750    1.000
    C71      C        0.18100    0.96850    0.63530    1.000
    H42      H        0.12280    0.94250    0.58840    1.000
    C72      C        0.17430    0.03080    0.48220    1.000
    Cd7      Cd       0.36611    0.63256    0.21423    1.000
    Br13     Br       0.63795    0.63279    0.80801    1.000
    Br14     Br       0.03682    0.59891    0.62956    1.000
    O25      O        0.44880    0.67036    0.38250    1.000
    O26      O        0.57610    0.71380    0.36540    1.000
    O27      O        0.40440    0.49270    0.07110    1.000
    O28      O        0.28450    0.57630    0.04970    1.000
    H43      H        0.52270    0.52950    0.30650    1.000
    N13      N        0.73850    0.77970    0.66680    1.000
    N14      N        0.28120    0.45510    0.76410    1.000
    C73      C        0.72480    0.74040    0.73520    1.000
    H44      H        0.76860    0.74880    0.80510    1.000
    C74      C        0.64810    0.68820    0.70540    1.000
    C75      C        0.58170    0.67430    0.60220    1.000
    H45      H        0.52850    0.63990    0.58110    1.000
    C76      C        0.59730    0.71350    0.53100    1.000
    C77      C        0.67620    0.76500    0.56640    1.000
    H46      H        0.68660    0.79080    0.51850    1.000
    C78      C        0.53510    0.69800    0.41710    1.000
    C79      C        0.19780    0.49320    0.69720    1.000
    H47      H        0.16980    0.48420    0.62700    1.000
    C80      C        0.15260    0.54520    0.72950    1.000
    C81      C        0.19070    0.55950    0.83280    1.000
    H48      H        0.16030    0.59480    0.85480    1.000
    C82      C        0.27580    0.51930    0.90250    1.000
    C83      C        0.31900    0.46850    0.86470    1.000
    H49      H        0.37720    0.44250    0.91160    1.000
    C84      C        0.32570    0.53080    0.01780    1.000
    Cd8      Cd       0.86611    0.13256    0.21423    1.000
    Br15     Br       0.13795    0.13279    0.80801    1.000
    Br16     Br       0.53682    0.09891    0.62956    1.000
    O29      O        0.94880    0.17036    0.38250    1.000
    O30      O        0.07610    0.21380    0.36540    1.000
    O31      O        0.90440    0.99270    0.07110    1.000
    O32      O        0.78450    0.07630    0.04970    1.000
    H50      H        0.02270    0.02950    0.30650    1.000
    N15      N        0.23850    0.27970    0.66680    1.000
    N16      N        0.78120    0.95510    0.76410    1.000
    C85      C        0.22480    0.24040    0.73520    1.000
    H51      H        0.26860    0.24880    0.80510    1.000
    C86      C        0.14810    0.18820    0.70540    1.000
    C87      C        0.08170    0.17430    0.60220    1.000
    H52      H        0.02850    0.13990    0.58110    1.000
    C88      C        0.09730    0.21350    0.53100    1.000
    C89      C        0.17620    0.26500    0.56640    1.000
    H53      H        0.18660    0.29080    0.51850    1.000
    C90      C        0.03510    0.19800    0.41710    1.000
    C91      C        0.69780    0.99320    0.69720    1.000
    H54      H        0.66980    0.98420    0.62700    1.000
    C92      C        0.65260    0.04520    0.72950    1.000
    C93      C        0.69070    0.05950    0.83280    1.000
    H55      H        0.66030    0.09480    0.85480    1.000
    C94      C        0.77580    0.01930    0.90250    1.000
    C95      C        0.81900    0.96850    0.86470    1.000
    H56      H        0.87720    0.94250    0.91160    1.000
    C96      C        0.82570    0.03080    0.01780    1.000
    O33      O        0.50000    0.44630    0.75000    1.000
    O34      O        0.00000    0.94630    0.75000    1.000
    O35      O        0.50000    0.55370    0.25000    1.000
    O36      O        0.00000    0.05370    0.25000    1.000
