# CIF file generated by openbabel 3.1.0, see https://openbabel.org
data_I
_chemical_name_common 'image0'
_cell_length_a 16.3248
_cell_length_b 13.3361
_cell_length_c 10.1019
_cell_angle_alpha 90
_cell_angle_beta 89.994
_cell_angle_gamma 90
_space_group_name_H-M_alt 'P 1'
_space_group_name_Hall 'P 1'
loop_
    _symmetry_equiv_pos_as_xyz
    x,y,z
loop_
    _atom_site_label
    _atom_site_type_symbol
    _atom_site_fract_x
    _atom_site_fract_y
    _atom_site_fract_z
    _atom_site_occupancy
    V1       V        0.02370    0.54667    0.24768    1.000
    V2       V        0.25003    0.24997    0.53647    1.000
    V3       V        0.47634    0.54669    0.74768    1.000
    P1       P        0.08665    0.39478    0.49759    1.000
    P2       P        0.08569    0.10619    0.51492    1.000
    P3       P        0.41433    0.39385    0.51499    1.000
    P4       P        0.41335    0.10517    0.49760    1.000
    O1       O        0.07158    0.47978    0.40110    1.000
    O2       O        0.09529    0.04260    0.64037    1.000
    O3       O        0.07517    0.42831    0.64169    1.000
    O4       O        0.05471    0.04468    0.39886    1.000
    O5       O        0.16850    0.15138    0.47893    1.000
    O6       O        0.32556    0.14287    0.48187    1.000
    O7       O        0.17440    0.35714    0.48201    1.000
    O8       O        0.33146    0.34857    0.47903    1.000
    O9       O        0.40478    0.45765    0.64042    1.000
    O10      O        0.42832    0.02006    0.40120    1.000
    O11      O        0.44518    0.45531    0.39876    1.000
    O12      O        0.42481    0.07157    0.64180    1.000
    C1       C        0.01441    0.29675    0.46070    1.000
    H1       H        0.95980    0.32550    0.46170    1.000
    H2       H        0.02480    0.27320    0.37150    1.000
    C2       C        0.01507    0.20551    0.55420    1.000
    H3       H        0.96030    0.17740    0.55600    1.000
    H4       H        0.02730    0.22910    0.64280    1.000
    C3       C        0.48488    0.29457    0.55430    1.000
    H5       H        0.53970    0.32270    0.55630    1.000
    H6       H        0.47260    0.27090    0.64290    1.000
    C4       C        0.48564    0.20328    0.46080    1.000
    H7       H        0.47520    0.22680    0.37150    1.000
    H8       H        0.54020    0.17460    0.46180    1.000
    V4       V        0.97630    0.04667    0.25232    1.000
    V5       V        0.74997    0.74997    0.96353    1.000
    V6       V        0.52366    0.04669    0.75232    1.000
    P5       P        0.91335    0.89478    0.00241    1.000
    P6       P        0.91431    0.60619    0.98508    1.000
    P7       P        0.58567    0.89385    0.98501    1.000
    P8       P        0.58665    0.60517    0.00240    1.000
    O13      O        0.92842    0.97978    0.09890    1.000
    O14      O        0.90471    0.54260    0.85963    1.000
    O15      O        0.92483    0.92831    0.85831    1.000
    O16      O        0.94529    0.54468    0.10114    1.000
    O17      O        0.83150    0.65138    0.02107    1.000
    O18      O        0.67444    0.64287    0.01813    1.000
    O19      O        0.82560    0.85714    0.01799    1.000
    O20      O        0.66854    0.84857    0.02097    1.000
    O21      O        0.59522    0.95765    0.85958    1.000
    O22      O        0.57168    0.52006    0.09880    1.000
    O23      O        0.55482    0.95531    0.10124    1.000
    O24      O        0.57519    0.57157    0.85820    1.000
    C5       C        0.98559    0.79675    0.03930    1.000
    H9       H        0.04020    0.82550    0.03830    1.000
    H10      H        0.97520    0.77320    0.12850    1.000
    C6       C        0.98493    0.70551    0.94580    1.000
    H11      H        0.03970    0.67740    0.94400    1.000
    H12      H        0.97270    0.72910    0.85720    1.000
    C7       C        0.51512    0.79457    0.94570    1.000
    H13      H        0.46030    0.82270    0.94370    1.000
    H14      H        0.52740    0.77090    0.85710    1.000
    C8       C        0.51436    0.70328    0.03920    1.000
    H15      H        0.52480    0.72680    0.12850    1.000
    H16      H        0.45980    0.67460    0.03820    1.000
    V7       V        0.97630    0.45333    0.75232    1.000
    V8       V        0.74997    0.75003    0.46353    1.000
    V9       V        0.52366    0.45331    0.25232    1.000
    P9       P        0.91335    0.60522    0.50241    1.000
    P10      P        0.91431    0.89381    0.48508    1.000
    P11      P        0.58567    0.60615    0.48501    1.000
    P12      P        0.58665    0.89483    0.50240    1.000
    O25      O        0.92842    0.52022    0.59890    1.000
    O26      O        0.90471    0.95740    0.35963    1.000
    O27      O        0.92483    0.57169    0.35831    1.000
    O28      O        0.94529    0.95532    0.60114    1.000
    O29      O        0.83150    0.84862    0.52107    1.000
    O30      O        0.67444    0.85713    0.51813    1.000
    O31      O        0.82560    0.64286    0.51799    1.000
    O32      O        0.66854    0.65143    0.52097    1.000
    O33      O        0.59522    0.54235    0.35958    1.000
    O34      O        0.57168    0.97994    0.59880    1.000
    O35      O        0.55482    0.54469    0.60124    1.000
    O36      O        0.57519    0.92843    0.35820    1.000
    C9       C        0.98559    0.70325    0.53930    1.000
    H17      H        0.04020    0.67450    0.53830    1.000
    H18      H        0.97520    0.72680    0.62850    1.000
    C10      C        0.98493    0.79449    0.44580    1.000
    H19      H        0.03970    0.82260    0.44400    1.000
    H20      H        0.97270    0.77090    0.35720    1.000
    C11      C        0.51512    0.70543    0.44570    1.000
    H21      H        0.46030    0.67730    0.44370    1.000
    H22      H        0.52740    0.72910    0.35710    1.000
    C12      C        0.51436    0.79672    0.53920    1.000
    H23      H        0.52480    0.77320    0.62850    1.000
    H24      H        0.45980    0.82540    0.53820    1.000
    V10      V        0.02370    0.95333    0.74768    1.000
    V11      V        0.25003    0.25003    0.03647    1.000
    V12      V        0.47634    0.95331    0.24768    1.000
    P13      P        0.08665    0.10522    0.99759    1.000
    P14      P        0.08569    0.39381    0.01492    1.000
    P15      P        0.41433    0.10615    0.01499    1.000
    P16      P        0.41335    0.39483    0.99760    1.000
    O37      O        0.07158    0.02022    0.90110    1.000
    O38      O        0.09529    0.45740    0.14037    1.000
    O39      O        0.07517    0.07169    0.14169    1.000
    O40      O        0.05471    0.45532    0.89886    1.000
    O41      O        0.16850    0.34862    0.97893    1.000
    O42      O        0.32556    0.35713    0.98187    1.000
    O43      O        0.17440    0.14286    0.98201    1.000
    O44      O        0.33146    0.15143    0.97903    1.000
    O45      O        0.40478    0.04235    0.14042    1.000
    O46      O        0.42832    0.47994    0.90120    1.000
    O47      O        0.44518    0.04469    0.89876    1.000
    O48      O        0.42481    0.42843    0.14180    1.000
    C13      C        0.01441    0.20325    0.96070    1.000
    H25      H        0.95980    0.17450    0.96170    1.000
    H26      H        0.02480    0.22680    0.87150    1.000
    C14      C        0.01507    0.29449    0.05420    1.000
    H27      H        0.96030    0.32260    0.05600    1.000
    H28      H        0.02730    0.27090    0.14280    1.000
    C15      C        0.48488    0.20543    0.05430    1.000
    H29      H        0.53970    0.17730    0.05630    1.000
    H30      H        0.47260    0.22910    0.14290    1.000
    C16      C        0.48564    0.29672    0.96080    1.000
    H31      H        0.47520    0.27320    0.87150    1.000
    H32      H        0.54020    0.32540    0.96180    1.000
