# CIF file generated by openbabel 3.1.0, see https://openbabel.org
data_I
_chemical_name_common 'image0'
_cell_length_a 20.344
_cell_length_b 20.344
_cell_length_c 20.344
_cell_angle_alpha 90
_cell_angle_beta 90
_cell_angle_gamma 90
_space_group_name_H-M_alt 'P 1'
_space_group_name_Hall 'P 1'
loop_
    _symmetry_equiv_pos_as_xyz
    x,y,z
loop_
    _atom_site_label
    _atom_site_type_symbol
    _atom_site_fract_x
    _atom_site_fract_y
    _atom_site_fract_z
    _atom_site_occupancy
    Mo1      Mo       0.71894    0.81258    0.18742    1.000
    N1       N        0.67840    0.92450    0.07550    1.000
    C1       C        0.68770    0.88460    0.11540    1.000
    Mo2      Mo       0.21894    0.31258    0.68742    1.000
    N2       N        0.17840    0.42450    0.57550    1.000
    C2       C        0.18770    0.38460    0.61540    1.000
    Mo3      Mo       0.28106    0.18742    0.18742    1.000
    N3       N        0.32160    0.07550    0.07550    1.000
    C3       C        0.31230    0.11540    0.11540    1.000
    Mo4      Mo       0.78106    0.68742    0.68742    1.000
    N4       N        0.82160    0.57550    0.57550    1.000
    C4       C        0.81230    0.61540    0.61540    1.000
    Mo5      Mo       0.28106    0.81258    0.81258    1.000
    N5       N        0.32160    0.92450    0.92450    1.000
    C5       C        0.31230    0.88460    0.88460    1.000
    Mo6      Mo       0.78106    0.31258    0.31258    1.000
    N6       N        0.82160    0.42450    0.42450    1.000
    C6       C        0.81230    0.38460    0.38460    1.000
    Mo7      Mo       0.71894    0.18742    0.81258    1.000
    N7       N        0.67840    0.07550    0.92450    1.000
    C7       C        0.68770    0.11540    0.88460    1.000
    Mo8      Mo       0.21894    0.68742    0.31258    1.000
    N8       N        0.17840    0.57550    0.42450    1.000
    C8       C        0.18770    0.61540    0.38460    1.000
    Mo9      Mo       0.18742    0.71894    0.81258    1.000
    N9       N        0.07550    0.67840    0.92450    1.000
    C9       C        0.11540    0.68770    0.88460    1.000
    Mo10     Mo       0.68742    0.21894    0.31258    1.000
    N10      N        0.57550    0.17840    0.42450    1.000
    C10      C        0.61540    0.18770    0.38460    1.000
    Mo11     Mo       0.18742    0.28106    0.18742    1.000
    N11      N        0.07550    0.32160    0.07550    1.000
    C11      C        0.11540    0.31230    0.11540    1.000
    Mo12     Mo       0.68742    0.78106    0.68742    1.000
    N12      N        0.57550    0.82160    0.57550    1.000
    C12      C        0.61540    0.81230    0.61540    1.000
    Mo13     Mo       0.81258    0.28106    0.81258    1.000
    N13      N        0.92450    0.32160    0.92450    1.000
    C13      C        0.88460    0.31230    0.88460    1.000
    Mo14     Mo       0.31258    0.78106    0.31258    1.000
    N14      N        0.42450    0.82160    0.42450    1.000
    C14      C        0.38460    0.81230    0.38460    1.000
    Mo15     Mo       0.81258    0.71894    0.18742    1.000
    N15      N        0.92450    0.67840    0.07550    1.000
    C15      C        0.88460    0.68770    0.11540    1.000
    Mo16     Mo       0.31258    0.21894    0.68742    1.000
    N16      N        0.42450    0.17840    0.57550    1.000
    C16      C        0.38460    0.18770    0.61540    1.000
    Mo17     Mo       0.81258    0.18742    0.71894    1.000
    N17      N        0.92450    0.07550    0.67840    1.000
    C17      C        0.88460    0.11540    0.68770    1.000
    Mo18     Mo       0.31258    0.68742    0.21894    1.000
    N18      N        0.42450    0.57550    0.17840    1.000
    C18      C        0.38460    0.61540    0.18770    1.000
    Mo19     Mo       0.18742    0.18742    0.28106    1.000
    N19      N        0.07550    0.07550    0.32160    1.000
    C19      C        0.11540    0.11540    0.31230    1.000
    Mo20     Mo       0.68742    0.68742    0.78106    1.000
    N20      N        0.57550    0.57550    0.82160    1.000
    C20      C        0.61540    0.61540    0.81230    1.000
    Mo21     Mo       0.81258    0.81258    0.28106    1.000
    N21      N        0.92450    0.92450    0.32160    1.000
    C21      C        0.88460    0.88460    0.31230    1.000
    Mo22     Mo       0.31258    0.31258    0.78106    1.000
    N22      N        0.42450    0.42450    0.82160    1.000
    C22      C        0.38460    0.38460    0.81230    1.000
    Mo23     Mo       0.18742    0.81258    0.71894    1.000
    N23      N        0.07550    0.92450    0.67840    1.000
    C23      C        0.11540    0.88460    0.68770    1.000
    Mo24     Mo       0.68742    0.31258    0.21894    1.000
    N24      N        0.57550    0.42450    0.17840    1.000
    C24      C        0.61540    0.38460    0.18770    1.000
    Mo25     Mo       0.81258    0.71894    0.81258    1.000
    N25      N        0.92450    0.67840    0.92450    1.000
    C25      C        0.88460    0.68770    0.88460    1.000
    Mo26     Mo       0.31258    0.21894    0.31258    1.000
    N26      N        0.42450    0.17840    0.42450    1.000
    C26      C        0.38460    0.18770    0.38460    1.000
    Mo27     Mo       0.18742    0.28106    0.81258    1.000
    N27      N        0.07550    0.32160    0.92450    1.000
    C27      C        0.11540    0.31230    0.88460    1.000
    Mo28     Mo       0.68742    0.78106    0.31258    1.000
    N28      N        0.57550    0.82160    0.42450    1.000
    C28      C        0.61540    0.81230    0.38460    1.000
    Mo29     Mo       0.81258    0.28106    0.18742    1.000
    N29      N        0.92450    0.32160    0.07550    1.000
    C29      C        0.88460    0.31230    0.11540    1.000
    Mo30     Mo       0.31258    0.78106    0.68742    1.000
    N30      N        0.42450    0.82160    0.57550    1.000
    C30      C        0.38460    0.81230    0.61540    1.000
    Mo31     Mo       0.18742    0.71894    0.18742    1.000
    N31      N        0.07550    0.67840    0.07550    1.000
    C31      C        0.11540    0.68770    0.11540    1.000
    Mo32     Mo       0.68742    0.21894    0.68742    1.000
    N32      N        0.57550    0.17840    0.57550    1.000
    C32      C        0.61540    0.18770    0.61540    1.000
    Mo33     Mo       0.71894    0.18742    0.18742    1.000
    N33      N        0.67840    0.07550    0.07550    1.000
    C33      C        0.68770    0.11540    0.11540    1.000
    Mo34     Mo       0.21894    0.68742    0.68742    1.000
    N34      N        0.17840    0.57550    0.57550    1.000
    C34      C        0.18770    0.61540    0.61540    1.000
    Mo35     Mo       0.28106    0.18742    0.81258    1.000
    N35      N        0.32160    0.07550    0.92450    1.000
    C35      C        0.31230    0.11540    0.88460    1.000
    Mo36     Mo       0.78106    0.68742    0.31258    1.000
    N36      N        0.82160    0.57550    0.42450    1.000
    C36      C        0.81230    0.61540    0.38460    1.000
    Mo37     Mo       0.28106    0.81258    0.18742    1.000
    N37      N        0.32160    0.92450    0.07550    1.000
    C37      C        0.31230    0.88460    0.11540    1.000
    Mo38     Mo       0.78106    0.31258    0.68742    1.000
    N38      N        0.82160    0.42450    0.57550    1.000
    C38      C        0.81230    0.38460    0.61540    1.000
    Mo39     Mo       0.71894    0.81258    0.81258    1.000
    N39      N        0.67840    0.92450    0.92450    1.000
    C39      C        0.68770    0.88460    0.88460    1.000
    Mo40     Mo       0.21894    0.31258    0.31258    1.000
    N40      N        0.17840    0.42450    0.42450    1.000
    C40      C        0.18770    0.38460    0.38460    1.000
    Mo41     Mo       0.18742    0.81258    0.28106    1.000
    N41      N        0.07550    0.92450    0.32160    1.000
    C41      C        0.11540    0.88460    0.31230    1.000
    Mo42     Mo       0.68742    0.31258    0.78106    1.000
    N42      N        0.57550    0.42450    0.82160    1.000
    C42      C        0.61540    0.38460    0.81230    1.000
    Mo43     Mo       0.18742    0.18742    0.71894    1.000
    N43      N        0.07550    0.07550    0.67840    1.000
    C43      C        0.11540    0.11540    0.68770    1.000
    Mo44     Mo       0.68742    0.68742    0.21894    1.000
    N44      N        0.57550    0.57550    0.17840    1.000
    C44      C        0.61540    0.61540    0.18770    1.000
    Mo45     Mo       0.81258    0.81258    0.71894    1.000
    N45      N        0.92450    0.92450    0.67840    1.000
    C45      C        0.88460    0.88460    0.68770    1.000
    Mo46     Mo       0.31258    0.31258    0.21894    1.000
    N46      N        0.42450    0.42450    0.17840    1.000
    C46      C        0.38460    0.38460    0.18770    1.000
    Mo47     Mo       0.81258    0.18742    0.28106    1.000
    N47      N        0.92450    0.07550    0.32160    1.000
    C47      C        0.88460    0.11540    0.31230    1.000
    Mo48     Mo       0.31258    0.68742    0.78106    1.000
    N48      N        0.42450    0.57550    0.82160    1.000
    C48      C        0.38460    0.61540    0.81230    1.000
    Se1      Se       0.72002    0.72002    0.10116    1.000
    Se2      Se       0.22002    0.22002    0.60116    1.000
    Se3      Se       0.27998    0.27998    0.10116    1.000
    Se4      Se       0.77998    0.77998    0.60116    1.000
    Se5      Se       0.27998    0.72002    0.89884    1.000
    Se6      Se       0.77998    0.22002    0.39884    1.000
    Se7      Se       0.72002    0.27998    0.89884    1.000
    Se8      Se       0.22002    0.77998    0.39884    1.000
    Se9      Se       0.10116    0.72002    0.72002    1.000
    Se10     Se       0.60116    0.22002    0.22002    1.000
    Se11     Se       0.10116    0.27998    0.27998    1.000
    Se12     Se       0.60116    0.77998    0.77998    1.000
    Se13     Se       0.89884    0.27998    0.72002    1.000
    Se14     Se       0.39884    0.77998    0.22002    1.000
    Se15     Se       0.89884    0.72002    0.27998    1.000
    Se16     Se       0.39884    0.22002    0.77998    1.000
    Se17     Se       0.72002    0.10116    0.72002    1.000
    Se18     Se       0.22002    0.60116    0.22002    1.000
    Se19     Se       0.27998    0.10116    0.27998    1.000
    Se20     Se       0.77998    0.60116    0.77998    1.000
    Se21     Se       0.72002    0.89884    0.27998    1.000
    Se22     Se       0.22002    0.39884    0.77998    1.000
    Se23     Se       0.27998    0.89884    0.72002    1.000
    Se24     Se       0.77998    0.39884    0.22002    1.000
    Se25     Se       0.72002    0.72002    0.89884    1.000
    Se26     Se       0.22002    0.22002    0.39884    1.000
    Se27     Se       0.27998    0.27998    0.89884    1.000
    Se28     Se       0.77998    0.77998    0.39884    1.000
    Se29     Se       0.72002    0.27998    0.10116    1.000
    Se30     Se       0.22002    0.77998    0.60116    1.000
    Se31     Se       0.27998    0.72002    0.10116    1.000
    Se32     Se       0.77998    0.22002    0.60116    1.000
    Se33     Se       0.72002    0.10116    0.27998    1.000
    Se34     Se       0.22002    0.60116    0.77998    1.000
    Se35     Se       0.27998    0.10116    0.72002    1.000
    Se36     Se       0.77998    0.60116    0.22002    1.000
    Se37     Se       0.27998    0.89884    0.27998    1.000
    Se38     Se       0.77998    0.39884    0.77998    1.000
    Se39     Se       0.72002    0.89884    0.72002    1.000
    Se40     Se       0.22002    0.39884    0.22002    1.000
    Se41     Se       0.10116    0.72002    0.27998    1.000
    Se42     Se       0.60116    0.22002    0.77998    1.000
    Se43     Se       0.10116    0.27998    0.72002    1.000
    Se44     Se       0.60116    0.77998    0.22002    1.000
    Se45     Se       0.89884    0.72002    0.72002    1.000
    Se46     Se       0.39884    0.22002    0.22002    1.000
    Se47     Se       0.89884    0.27998    0.27998    1.000
    Se48     Se       0.39884    0.77998    0.77998    1.000
    Se49     Se       0.83941    0.83941    0.16059    1.000
    Se50     Se       0.33941    0.33941    0.66059    1.000
    Se51     Se       0.16059    0.16059    0.16059    1.000
    Se52     Se       0.66059    0.66059    0.66059    1.000
    Se53     Se       0.16059    0.83941    0.83941    1.000
    Se54     Se       0.66059    0.33941    0.33941    1.000
    Se55     Se       0.83941    0.16059    0.83941    1.000
    Se56     Se       0.33941    0.66059    0.33941    1.000
    Se57     Se       0.83941    0.83941    0.83941    1.000
    Se58     Se       0.33941    0.33941    0.33941    1.000
    Se59     Se       0.16059    0.16059    0.83941    1.000
    Se60     Se       0.66059    0.66059    0.33941    1.000
    Se61     Se       0.83941    0.16059    0.16059    1.000
    Se62     Se       0.33941    0.66059    0.66059    1.000
    Se63     Se       0.16059    0.83941    0.16059    1.000
    Se64     Se       0.66059    0.33941    0.66059    1.000
    Mn1      Mn       0.68150    0.00000    0.00000    1.000
    Mn2      Mn       0.18150    0.50000    0.50000    1.000
    Mn3      Mn       0.31850    0.00000    0.00000    1.000
    Mn4      Mn       0.81850    0.50000    0.50000    1.000
    Mn5      Mn       0.00000    0.68150    0.00000    1.000
    Mn6      Mn       0.50000    0.18150    0.50000    1.000
    Mn7      Mn       0.00000    0.31850    0.00000    1.000
    Mn8      Mn       0.50000    0.81850    0.50000    1.000
    Mn9      Mn       0.00000    0.00000    0.68150    1.000
    Mn10     Mn       0.50000    0.50000    0.18150    1.000
    Mn11     Mn       0.00000    0.00000    0.31850    1.000
    Mn12     Mn       0.50000    0.50000    0.81850    1.000
    O1       O        0.78700    0.96200    0.00000    1.000
    O2       O        0.28700    0.46200    0.50000    1.000
    O3       O        0.21300    0.03800    0.00000    1.000
    O4       O        0.71300    0.53800    0.50000    1.000
    O5       O        0.21300    0.96200    0.00000    1.000
    O6       O        0.71300    0.46200    0.50000    1.000
    O7       O        0.78700    0.03800    0.00000    1.000
    O8       O        0.28700    0.53800    0.50000    1.000
    O9       O        0.00000    0.78700    0.96200    1.000
    O10      O        0.50000    0.28700    0.46200    1.000
    O11      O        0.00000    0.21300    0.03800    1.000
    O12      O        0.50000    0.71300    0.53800    1.000
    O13      O        0.00000    0.21300    0.96200    1.000
    O14      O        0.50000    0.71300    0.46200    1.000
    O15      O        0.00000    0.78700    0.03800    1.000
    O16      O        0.50000    0.28700    0.53800    1.000
    O17      O        0.96200    0.00000    0.78700    1.000
    O18      O        0.46200    0.50000    0.28700    1.000
    O19      O        0.03800    0.00000    0.21300    1.000
    O20      O        0.53800    0.50000    0.71300    1.000
    O21      O        0.96200    0.00000    0.21300    1.000
    O22      O        0.46200    0.50000    0.71300    1.000
    O23      O        0.03800    0.00000    0.78700    1.000
    O24      O        0.53800    0.50000    0.28700    1.000
    O25      O        0.96200    0.78700    0.00000    1.000
    O26      O        0.46200    0.28700    0.50000    1.000
    O27      O        0.03800    0.21300    0.00000    1.000
    O28      O        0.53800    0.71300    0.50000    1.000
    O29      O        0.96200    0.21300    0.00000    1.000
    O30      O        0.46200    0.71300    0.50000    1.000
    O31      O        0.03800    0.78700    0.00000    1.000
    O32      O        0.53800    0.28700    0.50000    1.000
    O33      O        0.78700    0.00000    0.03800    1.000
    O34      O        0.28700    0.50000    0.53800    1.000
    O35      O        0.21300    0.00000    0.96200    1.000
    O36      O        0.71300    0.50000    0.46200    1.000
    O37      O        0.21300    0.00000    0.03800    1.000
    O38      O        0.71300    0.50000    0.53800    1.000
    O39      O        0.78700    0.00000    0.96200    1.000
    O40      O        0.28700    0.50000    0.46200    1.000
    O41      O        0.00000    0.96200    0.21300    1.000
    O42      O        0.50000    0.46200    0.71300    1.000
    O43      O        0.00000    0.03800    0.78700    1.000
    O44      O        0.50000    0.53800    0.28700    1.000
    O45      O        0.00000    0.96200    0.78700    1.000
    O46      O        0.50000    0.46200    0.28700    1.000
    O47      O        0.00000    0.03800    0.21300    1.000
    O48      O        0.50000    0.53800    0.71300    1.000
