# CIF file generated by openbabel 3.1.0, see https://openbabel.org
data_I
_chemical_name_common 'image0'
_cell_length_a 17.993
_cell_length_b 7.2497
_cell_length_c 11.5979
_cell_angle_alpha 90
_cell_angle_beta 90
_cell_angle_gamma 90
_space_group_name_H-M_alt 'P 1'
_space_group_name_Hall 'P 1'
loop_
    _symmetry_equiv_pos_as_xyz
    x,y,z
loop_
    _atom_site_label
    _atom_site_type_symbol
    _atom_site_fract_x
    _atom_site_fract_y
    _atom_site_fract_z
    _atom_site_occupancy
    O1       O        0.58268    0.09580    0.39725    1.000
    C1       C        0.71653    0.08700    0.27910    1.000
    N1       N        0.69010    0.91610    0.32310    1.000
    O2       O        0.64610    0.84160    0.25580    1.000
    O3       O        0.71500    0.85070    0.41270    1.000
    H1       H        0.59390    0.65670    0.19280    1.000
    H2       H        0.52720    0.72980    0.15420    1.000
    H3       H        0.69390    0.97290    0.29900    1.000
    O4       O        0.08268    0.59580    0.89725    1.000
    C2       C        0.21653    0.58700    0.77910    1.000
    N2       N        0.19010    0.41610    0.82310    1.000
    O5       O        0.14610    0.34160    0.75580    1.000
    O6       O        0.21500    0.35070    0.91270    1.000
    H4       H        0.09390    0.15670    0.69280    1.000
    H5       H        0.02720    0.22980    0.65420    1.000
    H6       H        0.19390    0.47290    0.79900    1.000
    O7       O        0.41732    0.40420    0.39725    1.000
    C3       C        0.28347    0.41300    0.27910    1.000
    N3       N        0.30990    0.58390    0.32310    1.000
    O8       O        0.35390    0.65840    0.25580    1.000
    O9       O        0.28500    0.64930    0.41270    1.000
    H7       H        0.40610    0.84330    0.19280    1.000
    H8       H        0.47280    0.77020    0.15420    1.000
    H9       H        0.30610    0.52710    0.29900    1.000
    O10      O        0.91732    0.90420    0.89725    1.000
    C4       C        0.78347    0.91300    0.77910    1.000
    N4       N        0.80990    0.08390    0.82310    1.000
    O11      O        0.85390    0.15840    0.75580    1.000
    O12      O        0.78500    0.14930    0.91270    1.000
    H10      H        0.90610    0.34330    0.69280    1.000
    H11      H        0.97280    0.27020    0.65420    1.000
    H12      H        0.80610    0.02710    0.79900    1.000
    O13      O        0.41732    0.59580    0.60275    1.000
    C5       C        0.28347    0.58700    0.72090    1.000
    N5       N        0.30990    0.41610    0.67690    1.000
    O14      O        0.35390    0.34160    0.74420    1.000
    O15      O        0.28500    0.35070    0.58730    1.000
    H13      H        0.40610    0.15670    0.80720    1.000
    H14      H        0.47280    0.22980    0.84580    1.000
    H15      H        0.30610    0.47290    0.70100    1.000
    O16      O        0.91732    0.09580    0.10275    1.000
    C6       C        0.78347    0.08700    0.22090    1.000
    N6       N        0.80990    0.91610    0.17690    1.000
    O17      O        0.85390    0.84160    0.24420    1.000
    O18      O        0.78500    0.85070    0.08730    1.000
    H16      H        0.90610    0.65670    0.30720    1.000
    H17      H        0.97280    0.72980    0.34580    1.000
    H18      H        0.80610    0.97290    0.20100    1.000
    O19      O        0.58268    0.90420    0.60275    1.000
    C7       C        0.71653    0.91300    0.72090    1.000
    N7       N        0.69010    0.08390    0.67690    1.000
    O20      O        0.64610    0.15840    0.74420    1.000
    O21      O        0.71500    0.14930    0.58730    1.000
    H19      H        0.59390    0.34330    0.80720    1.000
    H20      H        0.52720    0.27020    0.84580    1.000
    H21      H        0.69390    0.02710    0.70100    1.000
    O22      O        0.08268    0.40420    0.10275    1.000
    C8       C        0.21653    0.41300    0.22090    1.000
    N8       N        0.19010    0.58390    0.17690    1.000
    O23      O        0.14610    0.65840    0.24420    1.000
    O24      O        0.21500    0.64930    0.08730    1.000
    H22      H        0.09390    0.84330    0.30720    1.000
    H23      H        0.02720    0.77020    0.34580    1.000
    H24      H        0.19390    0.52710    0.20100    1.000
    O25      O        0.41732    0.90420    0.60275    1.000
    C9       C        0.28347    0.91300    0.72090    1.000
    N9       N        0.30990    0.08390    0.67690    1.000
    O26      O        0.35390    0.15840    0.74420    1.000
    O27      O        0.28500    0.14930    0.58730    1.000
    H25      H        0.40610    0.34330    0.80720    1.000
    H26      H        0.47280    0.27020    0.84580    1.000
    H27      H        0.30610    0.02710    0.70100    1.000
    O28      O        0.91732    0.40420    0.10275    1.000
    C10      C        0.78347    0.41300    0.22090    1.000
    N10      N        0.80990    0.58390    0.17690    1.000
    O29      O        0.85390    0.65840    0.24420    1.000
    O30      O        0.78500    0.64930    0.08730    1.000
    H28      H        0.90610    0.84330    0.30720    1.000
    H29      H        0.97280    0.77020    0.34580    1.000
    H30      H        0.80610    0.52710    0.20100    1.000
    O31      O        0.58268    0.59580    0.60275    1.000
    C11      C        0.71653    0.58700    0.72090    1.000
    N11      N        0.69010    0.41610    0.67690    1.000
    O32      O        0.64610    0.34160    0.74420    1.000
    O33      O        0.71500    0.35070    0.58730    1.000
    H31      H        0.59390    0.15670    0.80720    1.000
    H32      H        0.52720    0.22980    0.84580    1.000
    H33      H        0.69390    0.47290    0.70100    1.000
    O34      O        0.08268    0.09580    0.10275    1.000
    C12      C        0.21653    0.08700    0.22090    1.000
    N12      N        0.19010    0.91610    0.17690    1.000
    O35      O        0.14610    0.84160    0.24420    1.000
    O36      O        0.21500    0.85070    0.08730    1.000
    H34      H        0.09390    0.65670    0.30720    1.000
    H35      H        0.02720    0.72980    0.34580    1.000
    H36      H        0.19390    0.97290    0.20100    1.000
    O37      O        0.58268    0.40420    0.39725    1.000
    C13      C        0.71653    0.41300    0.27910    1.000
    N13      N        0.69010    0.58390    0.32310    1.000
    O38      O        0.64610    0.65840    0.25580    1.000
    O39      O        0.71500    0.64930    0.41270    1.000
    H37      H        0.59390    0.84330    0.19280    1.000
    H38      H        0.52720    0.77020    0.15420    1.000
    H39      H        0.69390    0.52710    0.29900    1.000
    O40      O        0.08268    0.90420    0.89725    1.000
    C14      C        0.21653    0.91300    0.77910    1.000
    N14      N        0.19010    0.08390    0.82310    1.000
    O41      O        0.14610    0.15840    0.75580    1.000
    O42      O        0.21500    0.14930    0.91270    1.000
    H40      H        0.09390    0.34330    0.69280    1.000
    H41      H        0.02720    0.27020    0.65420    1.000
    H42      H        0.19390    0.02710    0.79900    1.000
    O43      O        0.41732    0.09580    0.39725    1.000
    C15      C        0.28347    0.08700    0.27910    1.000
    N15      N        0.30990    0.91610    0.32310    1.000
    O44      O        0.35390    0.84160    0.25580    1.000
    O45      O        0.28500    0.85070    0.41270    1.000
    H43      H        0.40610    0.65670    0.19280    1.000
    H44      H        0.47280    0.72980    0.15420    1.000
    H45      H        0.30610    0.97290    0.29900    1.000
    O46      O        0.91732    0.59580    0.89725    1.000
    C16      C        0.78347    0.58700    0.77910    1.000
    N16      N        0.80990    0.41610    0.82310    1.000
    O47      O        0.85390    0.34160    0.75580    1.000
    O48      O        0.78500    0.35070    0.91270    1.000
    H46      H        0.90610    0.15670    0.69280    1.000
    H47      H        0.97280    0.22980    0.65420    1.000
    H48      H        0.80610    0.47290    0.79900    1.000
    Co1      Co       0.50000    0.00000    0.50000    1.000
    Co2      Co       0.00000    0.50000    0.00000    1.000
    Co3      Co       0.50000    0.50000    0.50000    1.000
    Co4      Co       0.00000    0.00000    0.00000    1.000
    C17      C        0.60960    0.25000    0.37370    1.000
    C18      C        0.68190    0.25000    0.30910    1.000
    H49      H        0.54460    0.25000    0.65930    1.000
    C19      C        0.10960    0.75000    0.87370    1.000
    C20      C        0.18190    0.75000    0.80910    1.000
    H50      H        0.04460    0.75000    0.15930    1.000
    C21      C        0.39040    0.25000    0.37370    1.000
    C22      C        0.31810    0.25000    0.30910    1.000
    H51      H        0.45540    0.25000    0.65930    1.000
    C23      C        0.89040    0.75000    0.87370    1.000
    C24      C        0.81810    0.75000    0.80910    1.000
    H52      H        0.95540    0.75000    0.15930    1.000
    C25      C        0.39040    0.75000    0.62630    1.000
    C26      C        0.31810    0.75000    0.69090    1.000
    H53      H        0.45540    0.75000    0.34070    1.000
    C27      C        0.89040    0.25000    0.12630    1.000
    C28      C        0.81810    0.25000    0.19090    1.000
    H54      H        0.95540    0.25000    0.84070    1.000
    C29      C        0.60960    0.75000    0.62630    1.000
    C30      C        0.68190    0.75000    0.69090    1.000
    H55      H        0.54460    0.75000    0.34070    1.000
    C31      C        0.10960    0.25000    0.12630    1.000
    C32      C        0.18190    0.25000    0.19090    1.000
    H56      H        0.04460    0.25000    0.84070    1.000
    O49      O        0.50000    0.25000    0.60920    1.000
    O50      O        0.00000    0.75000    0.10920    1.000
    O51      O        0.50000    0.75000    0.39080    1.000
    O52      O        0.00000    0.25000    0.89080    1.000
    O53      O        0.56620    0.75000    0.19370    1.000
    O54      O        0.06620    0.25000    0.69370    1.000
    O55      O        0.43380    0.75000    0.19370    1.000
    O56      O        0.93380    0.25000    0.69370    1.000
    O57      O        0.43380    0.25000    0.80630    1.000
    O58      O        0.93380    0.75000    0.30630    1.000
    O59      O        0.56620    0.25000    0.80630    1.000
    O60      O        0.06620    0.75000    0.30630    1.000
