# CIF file generated by openbabel 3.1.0, see https://openbabel.org
data_I
_chemical_name_common 'image0'
_cell_length_a 24.1322
_cell_length_b 8.2047
_cell_length_c 15.471
_cell_angle_alpha 90
_cell_angle_beta 90
_cell_angle_gamma 90
_space_group_name_H-M_alt 'P 1'
_space_group_name_Hall 'P 1'
loop_
    _symmetry_equiv_pos_as_xyz
    x,y,z
loop_
    _atom_site_label
    _atom_site_type_symbol
    _atom_site_fract_x
    _atom_site_fract_y
    _atom_site_fract_z
    _atom_site_occupancy
    Ni1      Ni       0.81435    0.58155    0.97866    1.000
    F1       F        0.95179    0.81960    0.34370    1.000
    F2       F        0.01346    0.71350    0.26160    1.000
    F3       F        0.03753    0.85540    0.37220    1.000
    O1       O        0.89870    0.62460    0.97980    1.000
    O2       O        0.93780    0.84670    0.92210    1.000
    O3       O        0.79526    0.82520    0.97860    1.000
    O4       O        0.77048    0.06060    0.03630    1.000
    N1       N        0.81560    0.58830    0.57100    1.000
    N2       N        0.80750    0.55960    0.38660    1.000
    N3       N        0.81720    0.58830    0.84260    1.000
    N4       N        0.81020    0.57200    0.11330    1.000
    C1       C        0.94740    0.98220    0.19250    1.000
    C2       C        0.94930    0.89030    0.11700    1.000
    H1       H        0.98240    0.83890    0.10240    1.000
    C3       C        0.90440    0.87190    0.06280    1.000
    C4       C        0.85300    0.94740    0.08510    1.000
    C5       C        0.85110    0.03910    0.16160    1.000
    H2       H        0.81820    0.09080    0.17690    1.000
    C6       C        0.89630    0.05440    0.21440    1.000
    H3       H        0.89330    0.11350    0.26540    1.000
    C7       C        0.00080    0.84570    0.30710    1.000
    C8       C        0.91350    0.77500    0.97980    1.000
    C9       C        0.80340    0.94170    0.02930    1.000
    C10      C        0.84510    0.46260    0.52480    1.000
    H4       H        0.82340    0.36300    0.52650    1.000
    H5       H        0.87990    0.44150    0.55390    1.000
    C11      C        0.85640    0.50490    0.43370    1.000
    H6       H        0.88420    0.59030    0.43200    1.000
    H7       H        0.87170    0.41020    0.40470    1.000
    C12      C        0.78780    0.71200    0.43170    1.000
    H8       H        0.75900    0.76620    0.39870    1.000
    H9       H        0.81810    0.78710    0.44180    1.000
    C13      C        0.76330    0.63780    0.52330    1.000
    H10      H        0.74290    0.72000    0.55510    1.000
    H11      H        0.73950    0.54470    0.51310    1.000
    C14      C        0.84460    0.47920    0.79630    1.000
    H12      H        0.86530    0.40210    0.82620    1.000
    C15      C        0.84480    0.47040    0.70770    1.000
    H13      H        0.86480    0.38930    0.67950    1.000
    C16      C        0.81460    0.58520    0.66050    1.000
    C17      C        0.78650    0.70290    0.70770    1.000
    H14      H        0.76630    0.78350    0.67960    1.000
    C18      C        0.78890    0.69930    0.79700    1.000
    H15      H        0.76960    0.77910    0.82730    1.000
    C19      C        0.85240    0.51400    0.15830    1.000
    H16      H        0.88280    0.47350    0.12810    1.000
    C20      C        0.85410    0.51000    0.24730    1.000
    H17      H        0.88520    0.46820    0.27500    1.000
    C21      C        0.81000    0.56750    0.29640    1.000
    C22      C        0.76450    0.62630    0.24770    1.000
    H18      H        0.73300    0.66380    0.27600    1.000
    C23      C        0.76650    0.62840    0.15970    1.000
    H19      H        0.73630    0.67070    0.12980    1.000
    C24      C        0.76870    0.66300    0.43350    1.000
    H20      H        0.76770    0.76830    0.40540    1.000
    H21      H        0.73210    0.61520    0.42830    1.000
    C25      C        0.78000    0.68800    0.52300    1.000
    H22      H        0.79400    0.79790    0.52840    1.000
    H23      H        0.74450    0.68540    0.55230    1.000
    Ni2      Ni       0.18565    0.41845    0.97866    1.000
    F4       F        0.04821    0.18040    0.34370    1.000
    F5       F        0.98654    0.28650    0.26160    1.000
    F6       F        0.96247    0.14460    0.37220    1.000
    O5       O        0.10130    0.37540    0.97980    1.000
    O6       O        0.06220    0.15330    0.92210    1.000
    O7       O        0.20474    0.17480    0.97860    1.000
    O8       O        0.22952    0.93940    0.03630    1.000
    N5       N        0.18440    0.41170    0.57100    1.000
    N6       N        0.19250    0.44040    0.38660    1.000
    N7       N        0.18280    0.41170    0.84260    1.000
    N8       N        0.18980    0.42800    0.11330    1.000
    C26      C        0.05260    0.01780    0.19250    1.000
    C27      C        0.05070    0.10970    0.11700    1.000
    H24      H        0.01760    0.16110    0.10240    1.000
    C28      C        0.09560    0.12810    0.06280    1.000
    C29      C        0.14700    0.05260    0.08510    1.000
    C30      C        0.14890    0.96090    0.16160    1.000
    H25      H        0.18180    0.90920    0.17690    1.000
    C31      C        0.10370    0.94560    0.21440    1.000
    H26      H        0.10670    0.88650    0.26540    1.000
    C32      C        0.99920    0.15430    0.30710    1.000
    C33      C        0.08650    0.22500    0.97980    1.000
    C34      C        0.19660    0.05830    0.02930    1.000
    C35      C        0.15490    0.53740    0.52480    1.000
    H27      H        0.17660    0.63700    0.52650    1.000
    H28      H        0.12010    0.55850    0.55390    1.000
    C36      C        0.14360    0.49510    0.43370    1.000
    H29      H        0.11580    0.40970    0.43200    1.000
    H30      H        0.12830    0.58980    0.40470    1.000
    C37      C        0.21220    0.28800    0.43170    1.000
    H31      H        0.24100    0.23380    0.39870    1.000
    H32      H        0.18190    0.21290    0.44180    1.000
    C38      C        0.23670    0.36220    0.52330    1.000
    H33      H        0.25710    0.28000    0.55510    1.000
    H34      H        0.26050    0.45530    0.51310    1.000
    C39      C        0.15540    0.52080    0.79630    1.000
    H35      H        0.13470    0.59790    0.82620    1.000
    C40      C        0.15520    0.52960    0.70770    1.000
    H36      H        0.13520    0.61070    0.67950    1.000
    C41      C        0.18540    0.41480    0.66050    1.000
    C42      C        0.21350    0.29710    0.70770    1.000
    H37      H        0.23370    0.21650    0.67960    1.000
    C43      C        0.21110    0.30070    0.79700    1.000
    H38      H        0.23040    0.22090    0.82730    1.000
    C44      C        0.14760    0.48600    0.15830    1.000
    H39      H        0.11720    0.52650    0.12810    1.000
    C45      C        0.14590    0.49000    0.24730    1.000
    H40      H        0.11480    0.53180    0.27500    1.000
    C46      C        0.19000    0.43250    0.29640    1.000
    C47      C        0.23550    0.37370    0.24770    1.000
    H41      H        0.26700    0.33620    0.27600    1.000
    C48      C        0.23350    0.37160    0.15970    1.000
    H42      H        0.26370    0.32930    0.12980    1.000
    C49      C        0.23130    0.33700    0.43350    1.000
    H43      H        0.23230    0.23170    0.40540    1.000
    H44      H        0.26790    0.38480    0.42830    1.000
    C50      C        0.22000    0.31200    0.52300    1.000
    H45      H        0.20600    0.20210    0.52840    1.000
    H46      H        0.25550    0.31460    0.55230    1.000
    Ni3      Ni       0.68565    0.08155    0.02134    1.000
    F7       F        0.54821    0.31960    0.65630    1.000
    F8       F        0.48654    0.21350    0.73840    1.000
    F9       F        0.46247    0.35540    0.62780    1.000
    O9       O        0.60130    0.12460    0.02020    1.000
    O10      O        0.56220    0.34670    0.07790    1.000
    O11      O        0.70474    0.32520    0.02140    1.000
    O12      O        0.72952    0.56060    0.96370    1.000
    N9       N        0.68440    0.08830    0.42900    1.000
    N10      N        0.69250    0.05960    0.61340    1.000
    N11      N        0.68280    0.08830    0.15740    1.000
    N12      N        0.68980    0.07200    0.88670    1.000
    C51      C        0.55260    0.48220    0.80750    1.000
    C52      C        0.55070    0.39030    0.88300    1.000
    H47      H        0.51760    0.33890    0.89760    1.000
    C53      C        0.59560    0.37190    0.93720    1.000
    C54      C        0.64700    0.44740    0.91490    1.000
    C55      C        0.64890    0.53910    0.83840    1.000
    H48      H        0.68180    0.59080    0.82310    1.000
    C56      C        0.60370    0.55440    0.78560    1.000
    H49      H        0.60670    0.61350    0.73460    1.000
    C57      C        0.49920    0.34570    0.69290    1.000
    C58      C        0.58650    0.27500    0.02020    1.000
    C59      C        0.69660    0.44170    0.97070    1.000
    C60      C        0.65490    0.96260    0.47520    1.000
    H50      H        0.67660    0.86300    0.47350    1.000
    H51      H        0.62010    0.94150    0.44610    1.000
    C61      C        0.64360    0.00490    0.56630    1.000
    H52      H        0.61580    0.09030    0.56800    1.000
    H53      H        0.62830    0.91020    0.59530    1.000
    C62      C        0.71220    0.21200    0.56830    1.000
    H54      H        0.74100    0.26620    0.60130    1.000
    H55      H        0.68190    0.28710    0.55820    1.000
    C63      C        0.73670    0.13780    0.47670    1.000
    H56      H        0.75710    0.22000    0.44490    1.000
    H57      H        0.76050    0.04470    0.48690    1.000
    C64      C        0.65540    0.97920    0.20370    1.000
    H58      H        0.63470    0.90210    0.17380    1.000
    C65      C        0.65520    0.97040    0.29230    1.000
    H59      H        0.63520    0.88930    0.32050    1.000
    C66      C        0.68540    0.08520    0.33950    1.000
    C67      C        0.71350    0.20290    0.29230    1.000
    H60      H        0.73370    0.28350    0.32040    1.000
    C68      C        0.71110    0.19930    0.20300    1.000
    H61      H        0.73040    0.27910    0.17270    1.000
    C69      C        0.64760    0.01400    0.84170    1.000
    H62      H        0.61720    0.97350    0.87190    1.000
    C70      C        0.64590    0.01000    0.75270    1.000
    H63      H        0.61480    0.96820    0.72500    1.000
    C71      C        0.69000    0.06750    0.70360    1.000
    C72      C        0.73550    0.12630    0.75230    1.000
    H64      H        0.76700    0.16380    0.72400    1.000
    C73      C        0.73350    0.12840    0.84030    1.000
    H65      H        0.76370    0.17070    0.87020    1.000
    C74      C        0.73130    0.16300    0.56650    1.000
    H66      H        0.73230    0.26830    0.59460    1.000
    H67      H        0.76790    0.11520    0.57170    1.000
    C75      C        0.72000    0.18800    0.47700    1.000
    H68      H        0.70600    0.29790    0.47160    1.000
    H69      H        0.75550    0.18540    0.44770    1.000
    Ni4      Ni       0.31435    0.91845    0.02134    1.000
    F10      F        0.45179    0.68040    0.65630    1.000
    F11      F        0.51346    0.78650    0.73840    1.000
    F12      F        0.53753    0.64460    0.62780    1.000
    O13      O        0.39870    0.87540    0.02020    1.000
    O14      O        0.43780    0.65330    0.07790    1.000
    O15      O        0.29526    0.67480    0.02140    1.000
    O16      O        0.27048    0.43940    0.96370    1.000
    N13      N        0.31560    0.91170    0.42900    1.000
    N14      N        0.30750    0.94040    0.61340    1.000
    N15      N        0.31720    0.91170    0.15740    1.000
    N16      N        0.31020    0.92800    0.88670    1.000
    C76      C        0.44740    0.51780    0.80750    1.000
    C77      C        0.44930    0.60970    0.88300    1.000
    H70      H        0.48240    0.66110    0.89760    1.000
    C78      C        0.40440    0.62810    0.93720    1.000
    C79      C        0.35300    0.55260    0.91490    1.000
    C80      C        0.35110    0.46090    0.83840    1.000
    H71      H        0.31820    0.40920    0.82310    1.000
    C81      C        0.39630    0.44560    0.78560    1.000
    H72      H        0.39330    0.38650    0.73460    1.000
    C82      C        0.50080    0.65430    0.69290    1.000
    C83      C        0.41350    0.72500    0.02020    1.000
    C84      C        0.30340    0.55830    0.97070    1.000
    C85      C        0.34510    0.03740    0.47520    1.000
    H73      H        0.32340    0.13700    0.47350    1.000
    H74      H        0.37990    0.05850    0.44610    1.000
    C86      C        0.35640    0.99510    0.56630    1.000
    H75      H        0.38420    0.90970    0.56800    1.000
    H76      H        0.37170    0.08980    0.59530    1.000
    C87      C        0.28780    0.78800    0.56830    1.000
    H77      H        0.25900    0.73380    0.60130    1.000
    H78      H        0.31810    0.71290    0.55820    1.000
    C88      C        0.26330    0.86220    0.47670    1.000
    H79      H        0.24290    0.78000    0.44490    1.000
    H80      H        0.23950    0.95530    0.48690    1.000
    C89      C        0.34460    0.02080    0.20370    1.000
    H81      H        0.36530    0.09790    0.17380    1.000
    C90      C        0.34480    0.02960    0.29230    1.000
    H82      H        0.36480    0.11070    0.32050    1.000
    C91      C        0.31460    0.91480    0.33950    1.000
    C92      C        0.28650    0.79710    0.29230    1.000
    H83      H        0.26630    0.71650    0.32040    1.000
    C93      C        0.28890    0.80070    0.20300    1.000
    H84      H        0.26960    0.72090    0.17270    1.000
    C94      C        0.35240    0.98600    0.84170    1.000
    H85      H        0.38280    0.02650    0.87190    1.000
    C95      C        0.35410    0.99000    0.75270    1.000
    H86      H        0.38520    0.03180    0.72500    1.000
    C96      C        0.31000    0.93250    0.70360    1.000
    C97      C        0.26450    0.87370    0.75230    1.000
    H87      H        0.23300    0.83620    0.72400    1.000
    C98      C        0.26650    0.87160    0.84030    1.000
    H88      H        0.23630    0.82930    0.87020    1.000
    C99      C        0.26870    0.83700    0.56650    1.000
    H89      H        0.26770    0.73170    0.59460    1.000
    H90      H        0.23210    0.88480    0.57170    1.000
    C100     C        0.28000    0.81200    0.47700    1.000
    H91      H        0.29400    0.70210    0.47160    1.000
    H92      H        0.24450    0.81460    0.44770    1.000
    C101     C        0.00000    0.00000    0.24840    1.000
    C102     C        0.50000    0.50000    0.75160    1.000
