# CIF file generated by openbabel 3.1.0, see https://openbabel.org
data_I
_chemical_name_common 'AWAGEL_clean'
_cell_length_a 9.2663
_cell_length_b 14.9127
_cell_length_c 27.2481
_cell_angle_alpha 98.253
_cell_angle_beta 90
_cell_angle_gamma 90
_space_group_name_H-M_alt 'P 1'
_space_group_name_Hall 'P 1'
loop_
    _symmetry_equiv_pos_as_xyz
    x,y,z
loop_
    _atom_site_label
    _atom_site_type_symbol
    _atom_site_fract_x
    _atom_site_fract_y
    _atom_site_fract_z
    _atom_site_occupancy
    Cd1      Cd       0.79120    0.50685    0.22609    1.000
    Cd2      Cd       0.20880    0.00685    0.72609    1.000
    H1       H        0.23980    0.09110    0.01860    1.000
    H2       H        0.20920    0.06960    0.93340    1.000
    H3       H        0.18370    0.80170    0.93400    1.000
    H4       H        0.23750    0.82170    0.01690    1.000
    H5       H        0.08680    0.79060    0.85500    1.000
    H6       H        0.07580    0.82310    0.77050    1.000
    H7       H        0.22240    0.04240    0.85300    1.000
    H8       H        0.49150    0.07500    0.06140    1.000
    H9       H        0.55040    0.21870    0.10160    1.000
    H10      H        0.23850    0.19890    0.20060    1.000
    H11      H        0.16870    0.06180    0.15680    1.000
    H12      H        0.25530    0.37800    0.20090    1.000
    H13      H        0.41540    0.49960    0.23930    1.000
    H14      H        0.66240    0.30280    0.18000    1.000
    H15      H        0.03360    0.88750    0.08290    1.000
    H16      H        0.96890    0.77040    0.12680    1.000
    H17      H        0.36100    0.78370    0.18900    1.000
    H18      H        0.42950    0.89580    0.14210    1.000
    H19      H        0.31170    0.63370    0.20540    1.000
    H20      H        0.15720    0.53240    0.24520    1.000
    H21      H        0.90280    0.70400    0.19250    1.000
    H22      H        0.76020    0.59110    0.51860    1.000
    H23      H        0.79080    0.56960    0.43340    1.000
    H24      H        0.81630    0.30170    0.43400    1.000
    H25      H        0.76250    0.32170    0.51690    1.000
    H26      H        0.91320    0.29060    0.35500    1.000
    H27      H        0.92420    0.32310    0.27050    1.000
    H28      H        0.77760    0.54240    0.35300    1.000
    H29      H        0.50850    0.57500    0.56140    1.000
    H30      H        0.44960    0.71870    0.60160    1.000
    H31      H        0.76150    0.69890    0.70060    1.000
    H32      H        0.83130    0.56180    0.65680    1.000
    H33      H        0.74470    0.87800    0.70090    1.000
    H34      H        0.58460    0.99960    0.73930    1.000
    H35      H        0.33760    0.80280    0.68000    1.000
    H36      H        0.96640    0.38750    0.58290    1.000
    H37      H        0.03110    0.27040    0.62680    1.000
    H38      H        0.63900    0.28370    0.68900    1.000
    H39      H        0.57050    0.39580    0.64210    1.000
    H40      H        0.68830    0.13370    0.70540    1.000
    H41      H        0.84280    0.03240    0.74520    1.000
    H42      H        0.09720    0.20400    0.69250    1.000
    C1       C        0.24910    0.95880    0.02740    1.000
    C2       C        0.23390    0.03260    0.00150    1.000
    C3       C        0.20980    0.01990    0.95050    1.000
    C4       C        0.18710    0.93400    0.92511    1.000
    C5       C        0.19780    0.85990    0.95080    1.000
    C6       C        0.22920    0.87210    0.00060    1.000
    C7       C        0.11250    0.84490    0.84430    1.000
    C8       C        0.10770    0.86300    0.79770    1.000
    C9       C        0.18810    0.98400    0.84278    1.000
    C10      C        0.32270    0.05470    0.10450    1.000
    C11      C        0.43820    0.10070    0.08880    1.000
    C12      C        0.47610    0.18600    0.11370    1.000
    C13      C        0.40370    0.22140    0.15590    1.000
    C14      C        0.28850    0.17480    0.17220    1.000
    C15      C        0.24760    0.09230    0.14610    1.000
    C16      C        0.35570    0.37710    0.20160    1.000
    C17      C        0.44610    0.44420    0.22240    1.000
    C18      C        0.58120    0.33690    0.19040    1.000
    C19      C        0.23540    0.90130    0.10720    1.000
    C20      C        0.10070    0.86540    0.10360    1.000
    C21      C        0.06050    0.79590    0.13010    1.000
    C22      C        0.16140    0.76630    0.16152    1.000
    C23      C        0.29610    0.80360    0.16680    1.000
    C24      C        0.33710    0.87130    0.13930    1.000
    C25      C        0.21160    0.63560    0.20740    1.000
    C26      C        0.12470    0.57990    0.22940    1.000
    C27      C        0.98490    0.67340    0.20060    1.000
    C28      C        0.75090    0.45880    0.52740    1.000
    C29      C        0.76610    0.53260    0.50150    1.000
    C30      C        0.79020    0.51990    0.45050    1.000
    C31      C        0.81290    0.43400    0.42511    1.000
    C32      C        0.80220    0.35990    0.45080    1.000
    C33      C        0.77080    0.37210    0.50060    1.000
    C34      C        0.88750    0.34490    0.34430    1.000
    C35      C        0.89230    0.36300    0.29770    1.000
    C36      C        0.81190    0.48400    0.34278    1.000
    C37      C        0.67730    0.55470    0.60450    1.000
    C38      C        0.56180    0.60070    0.58880    1.000
    C39      C        0.52390    0.68600    0.61370    1.000
    C40      C        0.59630    0.72140    0.65590    1.000
    C41      C        0.71150    0.67480    0.67220    1.000
    C42      C        0.75240    0.59230    0.64610    1.000
    C43      C        0.64430    0.87710    0.70160    1.000
    C44      C        0.55390    0.94420    0.72240    1.000
    C45      C        0.41880    0.83690    0.69040    1.000
    C46      C        0.76460    0.40130    0.60720    1.000
    C47      C        0.89930    0.36540    0.60360    1.000
    C48      C        0.93950    0.29590    0.63010    1.000
    C49      C        0.83860    0.26630    0.66152    1.000
    C50      C        0.70390    0.30360    0.66680    1.000
    C51      C        0.66290    0.37130    0.63930    1.000
    C52      C        0.78840    0.13560    0.70740    1.000
    C53      C        0.87530    0.07990    0.72940    1.000
    C54      C        0.01510    0.17340    0.70060    1.000
    N1       N        0.58540    0.41990    0.21550    1.000
    N2       N        0.44480    0.30820    0.18211    1.000
    N3       N        0.27800    0.97060    0.07824    1.000
    N4       N        0.16260    0.92150    0.87352    1.000
    N5       N        0.15730    0.95020    0.79621    1.000
    N6       N        0.12160    0.69480    0.18894    1.000
    N7       N        0.98410    0.60290    0.22534    1.000
    N8       N        0.41460    0.91990    0.71550    1.000
    N9       N        0.55520    0.80820    0.68211    1.000
    N10      N        0.72200    0.47060    0.57824    1.000
    N11      N        0.83740    0.42150    0.37352    1.000
    N12      N        0.84270    0.45020    0.29621    1.000
    N13      N        0.87840    0.19480    0.68894    1.000
    N14      N        0.01590    0.10290    0.72534    1.000
    Cd3      Cd       0.79120    0.99315    0.27391    1.000
    Cd4      Cd       0.20880    0.49315    0.77391    1.000
    H43      H        0.23980    0.40890    0.48140    1.000
    H44      H        0.20920    0.43040    0.56660    1.000
    H45      H        0.18370    0.69830    0.56600    1.000
    H46      H        0.23750    0.67830    0.48310    1.000
    H47      H        0.08680    0.70940    0.64500    1.000
    H48      H        0.07580    0.67690    0.72950    1.000
    H49      H        0.22240    0.45760    0.64700    1.000
    H50      H        0.49150    0.42500    0.43860    1.000
    H51      H        0.55040    0.28130    0.39840    1.000
    H52      H        0.23850    0.30110    0.29940    1.000
    H53      H        0.16870    0.43820    0.34320    1.000
    H54      H        0.25530    0.12200    0.29910    1.000
    H55      H        0.41540    0.00040    0.26070    1.000
    H56      H        0.66240    0.19720    0.32000    1.000
    H57      H        0.03360    0.61250    0.41710    1.000
    H58      H        0.96890    0.72960    0.37320    1.000
    H59      H        0.36100    0.71630    0.31100    1.000
    H60      H        0.42950    0.60420    0.35790    1.000
    H61      H        0.31170    0.86630    0.29460    1.000
    H62      H        0.15720    0.96760    0.25480    1.000
    H63      H        0.90280    0.79600    0.30750    1.000
    H64      H        0.76020    0.90890    0.98140    1.000
    H65      H        0.79080    0.93040    0.06660    1.000
    H66      H        0.81630    0.19830    0.06600    1.000
    H67      H        0.76250    0.17830    0.98310    1.000
    H68      H        0.91320    0.20940    0.14500    1.000
    H69      H        0.92420    0.17690    0.22950    1.000
    H70      H        0.77760    0.95760    0.14700    1.000
    H71      H        0.50850    0.92500    0.93860    1.000
    H72      H        0.44960    0.78130    0.89840    1.000
    H73      H        0.76150    0.80110    0.79940    1.000
    H74      H        0.83130    0.93820    0.84320    1.000
    H75      H        0.74470    0.62200    0.79910    1.000
    H76      H        0.58460    0.50040    0.76070    1.000
    H77      H        0.33760    0.69720    0.82000    1.000
    H78      H        0.96640    0.11250    0.91710    1.000
    H79      H        0.03110    0.22960    0.87320    1.000
    H80      H        0.63900    0.21630    0.81100    1.000
    H81      H        0.57050    0.10420    0.85790    1.000
    H82      H        0.68830    0.36630    0.79460    1.000
    H83      H        0.84280    0.46760    0.75480    1.000
    H84      H        0.09720    0.29600    0.80750    1.000
    C55      C        0.24910    0.54120    0.47260    1.000
    C56      C        0.23390    0.46740    0.49850    1.000
    C57      C        0.20980    0.48010    0.54950    1.000
    C58      C        0.18710    0.56600    0.57489    1.000
    C59      C        0.19780    0.64010    0.54920    1.000
    C60      C        0.22920    0.62790    0.49940    1.000
    C61      C        0.11250    0.65510    0.65570    1.000
    C62      C        0.10770    0.63700    0.70230    1.000
    C63      C        0.18810    0.51600    0.65722    1.000
    C64      C        0.32270    0.44530    0.39550    1.000
    C65      C        0.43820    0.39930    0.41120    1.000
    C66      C        0.47610    0.31400    0.38630    1.000
    C67      C        0.40370    0.27860    0.34410    1.000
    C68      C        0.28850    0.32520    0.32780    1.000
    C69      C        0.24760    0.40770    0.35390    1.000
    C70      C        0.35570    0.12290    0.29840    1.000
    C71      C        0.44610    0.05580    0.27760    1.000
    C72      C        0.58120    0.16310    0.30960    1.000
    C73      C        0.23540    0.59870    0.39280    1.000
    C74      C        0.10070    0.63460    0.39640    1.000
    C75      C        0.06050    0.70410    0.36990    1.000
    C76      C        0.16140    0.73370    0.33848    1.000
    C77      C        0.29610    0.69640    0.33320    1.000
    C78      C        0.33710    0.62870    0.36070    1.000
    C79      C        0.21160    0.86440    0.29260    1.000
    C80      C        0.12470    0.92010    0.27060    1.000
    C81      C        0.98490    0.82660    0.29940    1.000
    C82      C        0.75090    0.04120    0.97260    1.000
    C83      C        0.76610    0.96740    0.99850    1.000
    C84      C        0.79020    0.98010    0.04950    1.000
    C85      C        0.81290    0.06600    0.07489    1.000
    C86      C        0.80220    0.14010    0.04920    1.000
    C87      C        0.77080    0.12790    0.99940    1.000
    C88      C        0.88750    0.15510    0.15570    1.000
    C89      C        0.89230    0.13700    0.20230    1.000
    C90      C        0.81190    0.01600    0.15722    1.000
    C91      C        0.67730    0.94530    0.89550    1.000
    C92      C        0.56180    0.89930    0.91120    1.000
    C93      C        0.52390    0.81400    0.88630    1.000
    C94      C        0.59630    0.77860    0.84410    1.000
    C95      C        0.71150    0.82520    0.82780    1.000
    C96      C        0.75240    0.90770    0.85390    1.000
    C97      C        0.64430    0.62290    0.79840    1.000
    C98      C        0.55390    0.55580    0.77760    1.000
    C99      C        0.41880    0.66310    0.80960    1.000
    C100     C        0.76460    0.09870    0.89280    1.000
    C101     C        0.89930    0.13460    0.89640    1.000
    C102     C        0.93950    0.20410    0.86990    1.000
    C103     C        0.83860    0.23370    0.83848    1.000
    C104     C        0.70390    0.19640    0.83320    1.000
    C105     C        0.66290    0.12870    0.86070    1.000
    C106     C        0.78840    0.36440    0.79260    1.000
    C107     C        0.87530    0.42010    0.77060    1.000
    C108     C        0.01510    0.32660    0.79940    1.000
    N15      N        0.58540    0.08010    0.28450    1.000
    N16      N        0.44480    0.19180    0.31789    1.000
    N17      N        0.27800    0.52940    0.42176    1.000
    N18      N        0.16260    0.57850    0.62648    1.000
    N19      N        0.15730    0.54980    0.70379    1.000
    N20      N        0.12160    0.80520    0.31106    1.000
    N21      N        0.98410    0.89710    0.27466    1.000
    N22      N        0.41460    0.58010    0.78450    1.000
    N23      N        0.55520    0.69180    0.81789    1.000
    N24      N        0.72200    0.02940    0.92176    1.000
    N25      N        0.83740    0.07850    0.12648    1.000
    N26      N        0.84270    0.04980    0.20379    1.000
    N27      N        0.87840    0.30520    0.81106    1.000
    N28      N        0.01590    0.39710    0.77466    1.000
