# CIF file generated by openbabel 3.1.0, see https://openbabel.org
data_I
_chemical_name_common 'VODSEM_clean'
_cell_length_a 6.724
_cell_length_b 14.096
_cell_length_c 23.984
_cell_angle_alpha 90
_cell_angle_beta 90
_cell_angle_gamma 90
_space_group_name_H-M_alt 'P 1'
_space_group_name_Hall 'P 1'
loop_
    _symmetry_equiv_pos_as_xyz
    x,y,z
loop_
    _atom_site_label
    _atom_site_type_symbol
    _atom_site_fract_x
    _atom_site_fract_y
    _atom_site_fract_z
    _atom_site_occupancy
    La1      La       0.88231    0.20589    0.63399    1.000
    La2      La       0.38231    0.29411    0.86601    1.000
    La3      La       0.61769    0.20589    0.36601    1.000
    La4      La       0.11769    0.29411    0.13399    1.000
    La5      La       0.11769    0.79411    0.36601    1.000
    La6      La       0.61769    0.70589    0.13399    1.000
    La7      La       0.38231    0.79411    0.63399    1.000
    La8      La       0.88231    0.70589    0.86601    1.000
    C1       C        0.02450    0.39110    0.73250    1.000
    C2       C        0.05660    0.43360    0.78760    1.000
    C3       C        0.01520    0.52690    0.76620    1.000
    C4       C        0.98940    0.48710    0.70950    1.000
    C5       C        0.85960    0.20350    0.49140    1.000
    C6       C        0.52450    0.10890    0.76750    1.000
    C7       C        0.55660    0.06640    0.71240    1.000
    C8       C        0.51520    0.97310    0.73380    1.000
    C9       C        0.48940    0.01290    0.79050    1.000
    C10      C        0.35960    0.29650    0.00860    1.000
    C11      C        0.47550    0.39110    0.26750    1.000
    C12      C        0.44340    0.43360    0.21240    1.000
    C13      C        0.48480    0.52690    0.23380    1.000
    C14      C        0.51060    0.48710    0.29050    1.000
    C15      C        0.64040    0.20350    0.50860    1.000
    C16      C        0.97550    0.10890    0.23250    1.000
    C17      C        0.94340    0.06640    0.28760    1.000
    C18      C        0.98480    0.97310    0.26620    1.000
    C19      C        0.01060    0.01290    0.20950    1.000
    C20      C        0.14040    0.29650    0.99140    1.000
    C21      C        0.97550    0.60890    0.26750    1.000
    C22      C        0.94340    0.56640    0.21240    1.000
    C23      C        0.98480    0.47310    0.23380    1.000
    C24      C        0.01060    0.51290    0.29050    1.000
    C25      C        0.14040    0.79650    0.50860    1.000
    C26      C        0.47550    0.89110    0.23250    1.000
    C27      C        0.44340    0.93360    0.28760    1.000
    C28      C        0.48480    0.02690    0.26620    1.000
    C29      C        0.51060    0.98710    0.20950    1.000
    C30      C        0.64040    0.70350    0.99140    1.000
    C31      C        0.52450    0.60890    0.73250    1.000
    C32      C        0.55660    0.56640    0.78760    1.000
    C33      C        0.51520    0.47310    0.76620    1.000
    C34      C        0.48940    0.51290    0.70950    1.000
    C35      C        0.35960    0.79650    0.49140    1.000
    C36      C        0.02450    0.89110    0.76750    1.000
    C37      C        0.05660    0.93360    0.71240    1.000
    C38      C        0.01520    0.02690    0.73380    1.000
    C39      C        0.98940    0.98710    0.79050    1.000
    C40      C        0.85960    0.70350    0.00860    1.000
    O1       O        0.02480    0.30860    0.71340    1.000
    O2       O        0.10480    0.40350    0.83530    1.000
    O3       O        0.00590    0.60940    0.78580    1.000
    O4       O        0.95510    0.52060    0.66260    1.000
    O5       O        0.98760    0.20590    0.52920    1.000
    O6       O        0.89430    0.19940    0.43975    1.000
    O7       O        0.52480    0.19140    0.78660    1.000
    O8       O        0.60480    0.09650    0.66470    1.000
    O9       O        0.50590    0.89060    0.71420    1.000
    O10      O        0.45510    0.97940    0.83740    1.000
    O11      O        0.48760    0.29410    0.97080    1.000
    O12      O        0.39430    0.30060    0.06025    1.000
    O13      O        0.47520    0.30860    0.28660    1.000
    O14      O        0.39520    0.40350    0.16470    1.000
    O15      O        0.49410    0.60940    0.21420    1.000
    O16      O        0.54490    0.52060    0.33740    1.000
    O17      O        0.51240    0.20590    0.47080    1.000
    O18      O        0.60570    0.19940    0.56025    1.000
    O19      O        0.97520    0.19140    0.21340    1.000
    O20      O        0.89520    0.09650    0.33530    1.000
    O21      O        0.99410    0.89060    0.28580    1.000
    O22      O        0.04490    0.97940    0.16260    1.000
    O23      O        0.01240    0.29410    0.02920    1.000
    O24      O        0.10570    0.30060    0.93975    1.000
    O25      O        0.97520    0.69140    0.28660    1.000
    O26      O        0.89520    0.59650    0.16470    1.000
    O27      O        0.99410    0.39060    0.21420    1.000
    O28      O        0.04490    0.47940    0.33740    1.000
    O29      O        0.01240    0.79410    0.47080    1.000
    O30      O        0.10570    0.80060    0.56025    1.000
    O31      O        0.47520    0.80860    0.21340    1.000
    O32      O        0.39520    0.90350    0.33530    1.000
    O33      O        0.49410    0.10940    0.28580    1.000
    O34      O        0.54490    0.02060    0.16260    1.000
    O35      O        0.51240    0.70590    0.02920    1.000
    O36      O        0.60570    0.69940    0.93975    1.000
    O37      O        0.52480    0.69140    0.71340    1.000
    O38      O        0.60480    0.59650    0.83530    1.000
    O39      O        0.50590    0.39060    0.78580    1.000
    O40      O        0.45510    0.47940    0.66260    1.000
    O41      O        0.48760    0.79410    0.52920    1.000
    O42      O        0.39430    0.80060    0.43975    1.000
    O43      O        0.02480    0.80860    0.78660    1.000
    O44      O        0.10480    0.90350    0.66470    1.000
    O45      O        0.00590    0.10940    0.71420    1.000
    O46      O        0.95510    0.02060    0.83740    1.000
    O47      O        0.98760    0.70590    0.97080    1.000
    O48      O        0.89430    0.69940    0.06025    1.000
