# CIF file generated by openbabel 3.1.0, see https://openbabel.org
data_I
_chemical_name_common 'XOVYUD_clean'
_cell_length_a 7.036
_cell_length_b 15.8921
_cell_length_c 26.561
_cell_angle_alpha 90
_cell_angle_beta 90
_cell_angle_gamma 90
_space_group_name_H-M_alt 'P 1'
_space_group_name_Hall 'P 1'
loop_
    _symmetry_equiv_pos_as_xyz
    x,y,z
loop_
    _atom_site_label
    _atom_site_type_symbol
    _atom_site_fract_x
    _atom_site_fract_y
    _atom_site_fract_z
    _atom_site_occupancy
    Cd1      Cd       0.59302    0.51981    0.98568    1.000
    Cd2      Cd       0.34696    0.75398    0.99770    1.000
    Cd3      Cd       0.27660    0.50851    0.88659    1.000
    Cd4      Cd       0.90698    0.48019    0.48568    1.000
    Cd5      Cd       0.15304    0.24602    0.49770    1.000
    Cd6      Cd       0.22340    0.49149    0.38659    1.000
    Cd7      Cd       0.40698    0.01981    0.51432    1.000
    Cd8      Cd       0.65304    0.25398    0.50230    1.000
    Cd9      Cd       0.72340    0.00851    0.61341    1.000
    Cd10     Cd       0.09302    0.98019    0.01432    1.000
    Cd11     Cd       0.84696    0.74602    0.00230    1.000
    Cd12     Cd       0.77660    0.99149    0.11341    1.000
    P1       P        0.09360    0.55956    0.99999    1.000
    P2       P        0.59660    0.67172    0.90095    1.000
    P3       P        0.40640    0.44044    0.49999    1.000
    P4       P        0.90340    0.32828    0.40095    1.000
    P5       P        0.90640    0.05956    0.50001    1.000
    P6       P        0.40340    0.17172    0.59905    1.000
    P7       P        0.59360    0.94044    0.00001    1.000
    P8       P        0.09660    0.82828    0.09905    1.000
    H1       H        0.90660    0.42340    0.06050    1.000
    H2       H        0.50230    0.79220    0.82080    1.000
    H3       H        0.02530    0.54500    0.08490    1.000
    H4       H        0.23220    0.51360    0.07430    1.000
    H5       H        0.08050    0.38930    0.99170    1.000
    H6       H        0.25040    0.36470    0.02710    1.000
    H7       H        0.89730    0.28180    0.02510    1.000
    H8       H        0.08640    0.24450    0.00320    1.000
    H9       H        0.21850    0.24350    0.08440    1.000
    H10      H        0.86120    0.29810    0.11850    1.000
    H11      H        0.03250    0.27590    0.15390    1.000
    H12      H        0.20800    0.38720    0.12240    1.000
    H13      H        0.01170    0.42200    0.14110    1.000
    H14      H        0.53220    0.64970    0.81620    1.000
    H15      H        0.75140    0.65950    0.82400    1.000
    H16      H        0.76040    0.74830    0.74710    1.000
    H17      H        0.54070    0.73300    0.74240    1.000
    H18      H        0.48580    0.87890    0.74290    1.000
    H19      H        0.62460    0.85620    0.69860    1.000
    H20      H        0.88580    0.89690    0.74660    1.000
    H21      H        0.85220    0.95150    0.82630    1.000
    H22      H        0.63090    0.94140    0.82360    1.000
    H23      H        0.74810    0.83250    0.87200    1.000
    H24      H        0.89280    0.80690    0.82970    1.000
    H25      H        0.59340    0.57660    0.56050    1.000
    H26      H        0.99770    0.20780    0.32080    1.000
    H27      H        0.47470    0.45500    0.58490    1.000
    H28      H        0.26780    0.48640    0.57430    1.000
    H29      H        0.41950    0.61070    0.49170    1.000
    H30      H        0.24960    0.63530    0.52710    1.000
    H31      H        0.60270    0.71820    0.52510    1.000
    H32      H        0.41360    0.75550    0.50320    1.000
    H33      H        0.28150    0.75650    0.58440    1.000
    H34      H        0.63880    0.70190    0.61850    1.000
    H35      H        0.46750    0.72410    0.65390    1.000
    H36      H        0.29200    0.61280    0.62240    1.000
    H37      H        0.48830    0.57800    0.64110    1.000
    H38      H        0.96780    0.35030    0.31620    1.000
    H39      H        0.74860    0.34050    0.32400    1.000
    H40      H        0.73960    0.25170    0.24710    1.000
    H41      H        0.95930    0.26700    0.24240    1.000
    H42      H        0.01420    0.12110    0.24290    1.000
    H43      H        0.87540    0.14380    0.19860    1.000
    H44      H        0.61420    0.10310    0.24660    1.000
    H45      H        0.64780    0.04850    0.32630    1.000
    H46      H        0.86910    0.05860    0.32360    1.000
    H47      H        0.75190    0.16750    0.37200    1.000
    H48      H        0.60720    0.19310    0.32970    1.000
    H49      H        0.09340    0.92340    0.43950    1.000
    H50      H        0.49770    0.29220    0.67920    1.000
    H51      H        0.97470    0.04500    0.41510    1.000
    H52      H        0.76780    0.01360    0.42570    1.000
    H53      H        0.91950    0.88930    0.50830    1.000
    H54      H        0.74960    0.86470    0.47290    1.000
    H55      H        0.10270    0.78180    0.47490    1.000
    H56      H        0.91360    0.74450    0.49680    1.000
    H57      H        0.78150    0.74350    0.41560    1.000
    H58      H        0.13880    0.79810    0.38150    1.000
    H59      H        0.96750    0.77590    0.34610    1.000
    H60      H        0.79200    0.88720    0.37760    1.000
    H61      H        0.98830    0.92200    0.35890    1.000
    H62      H        0.46780    0.14970    0.68380    1.000
    H63      H        0.24860    0.15950    0.67600    1.000
    H64      H        0.23960    0.24830    0.75290    1.000
    H65      H        0.45930    0.23300    0.75760    1.000
    H66      H        0.51420    0.37890    0.75710    1.000
    H67      H        0.37540    0.35620    0.80140    1.000
    H68      H        0.11420    0.39690    0.75340    1.000
    H69      H        0.14780    0.45150    0.67370    1.000
    H70      H        0.36910    0.44140    0.67640    1.000
    H71      H        0.25190    0.33250    0.62800    1.000
    H72      H        0.10720    0.30690    0.67030    1.000
    H73      H        0.40660    0.07660    0.93950    1.000
    H74      H        0.00230    0.70780    0.17920    1.000
    H75      H        0.52530    0.95500    0.91510    1.000
    H76      H        0.73220    0.98640    0.92570    1.000
    H77      H        0.58050    0.11070    0.00830    1.000
    H78      H        0.75040    0.13530    0.97290    1.000
    H79      H        0.39730    0.21820    0.97490    1.000
    H80      H        0.58640    0.25550    0.99680    1.000
    H81      H        0.71850    0.25650    0.91560    1.000
    H82      H        0.36120    0.20190    0.88150    1.000
    H83      H        0.53250    0.22410    0.84610    1.000
    H84      H        0.70800    0.11280    0.87760    1.000
    H85      H        0.51170    0.07800    0.85890    1.000
    H86      H        0.03220    0.85030    0.18380    1.000
    H87      H        0.25140    0.84050    0.17600    1.000
    H88      H        0.26040    0.75170    0.25290    1.000
    H89      H        0.04070    0.76700    0.25760    1.000
    H90      H        0.98580    0.62110    0.25710    1.000
    H91      H        0.12460    0.64380    0.30140    1.000
    H92      H        0.38580    0.60310    0.25340    1.000
    H93      H        0.35220    0.54850    0.17370    1.000
    H94      H        0.13090    0.55860    0.17640    1.000
    H95      H        0.24810    0.66750    0.12800    1.000
    H96      H        0.39280    0.69310    0.17030    1.000
    C1       C        0.10210    0.51150    0.06220    1.000
    C2       C        0.11300    0.36670    0.02450    1.000
    C3       C        0.03400    0.27990    0.02950    1.000
    C4       C        0.08000    0.24140    0.08070    1.000
    C5       C        0.99870    0.29780    0.12100    1.000
    C6       C        0.07230    0.38670    0.11600    1.000
    C7       C        0.02360    0.14670    0.08120    1.000
    C8       C        0.62880    0.68300    0.83300    1.000
    C9       C        0.63700    0.77000    0.75650    1.000
    C10      C        0.61200    0.85810    0.73490    1.000
    C11      C        0.76000    0.91720    0.75670    1.000
    C12      C        0.75050    0.91660    0.81310    1.000
    C13      C        0.76670    0.82930    0.83590    1.000
    C14      C        0.73420    0.00680    0.73570    1.000
    C15      C        0.39790    0.48850    0.56220    1.000
    C16      C        0.38700    0.63330    0.52450    1.000
    C17      C        0.46600    0.72010    0.52950    1.000
    C18      C        0.42000    0.75860    0.58070    1.000
    C19      C        0.50130    0.70220    0.62100    1.000
    C20      C        0.42770    0.61330    0.61600    1.000
    C21      C        0.47640    0.85330    0.58120    1.000
    C22      C        0.87120    0.31700    0.33300    1.000
    C23      C        0.86300    0.23000    0.25650    1.000
    C24      C        0.88800    0.14190    0.23490    1.000
    C25      C        0.74000    0.08280    0.25670    1.000
    C26      C        0.74950    0.08340    0.31310    1.000
    C27      C        0.73330    0.17070    0.33590    1.000
    C28      C        0.76580    0.99320    0.23570    1.000
    C29      C        0.89790    0.01150    0.43780    1.000
    C30      C        0.88700    0.86670    0.47550    1.000
    C31      C        0.96600    0.77990    0.47050    1.000
    C32      C        0.92000    0.74140    0.41930    1.000
    C33      C        0.00130    0.79780    0.37900    1.000
    C34      C        0.92770    0.88670    0.38400    1.000
    C35      C        0.97640    0.64670    0.41880    1.000
    C36      C        0.37120    0.18300    0.66700    1.000
    C37      C        0.36300    0.27000    0.74350    1.000
    C38      C        0.38800    0.35810    0.76510    1.000
    C39      C        0.24000    0.41720    0.74330    1.000
    C40      C        0.24950    0.41660    0.68690    1.000
    C41      C        0.23330    0.32930    0.66410    1.000
    C42      C        0.26580    0.50680    0.76430    1.000
    C43      C        0.60210    0.98850    0.93780    1.000
    C44      C        0.61300    0.13330    0.97550    1.000
    C45      C        0.53400    0.22010    0.97050    1.000
    C46      C        0.58000    0.25860    0.91930    1.000
    C47      C        0.49870    0.20220    0.87900    1.000
    C48      C        0.57230    0.11330    0.88400    1.000
    C49      C        0.52360    0.35330    0.91880    1.000
    C50      C        0.12880    0.81700    0.16700    1.000
    C51      C        0.13700    0.73000    0.24350    1.000
    C52      C        0.11200    0.64190    0.26510    1.000
    C53      C        0.26000    0.58280    0.24330    1.000
    C54      C        0.25050    0.58340    0.18690    1.000
    C55      C        0.26670    0.67070    0.16410    1.000
    C56      C        0.23420    0.49320    0.26430    1.000
    N1       N        0.03500    0.42230    0.06470    1.000
    N2       N        0.61900    0.77120    0.81310    1.000
    N3       N        0.46500    0.57770    0.56470    1.000
    N4       N        0.88100    0.22880    0.31310    1.000
    N5       N        0.96500    0.92230    0.43530    1.000
    N6       N        0.38100    0.27120    0.68690    1.000
    N7       N        0.53500    0.07770    0.93530    1.000
    N8       N        0.11900    0.72880    0.18690    1.000
    Cl1      Cl       0.59330    0.43780    0.06915    1.000
    Cl2      Cl       0.58200    0.65231    0.04191    1.000
    Cl3      Cl       0.90670    0.56220    0.56915    1.000
    Cl4      Cl       0.91800    0.34769    0.54191    1.000
    Cl5      Cl       0.40670    0.93780    0.43085    1.000
    Cl6      Cl       0.41800    0.15231    0.45809    1.000
    Cl7      Cl       0.09330    0.06220    0.93085    1.000
    Cl8      Cl       0.08200    0.84769    0.95809    1.000
    O1       O        0.91110    0.52960    0.97700    1.000
    O2       O        0.10440    0.65490    0.00710    1.000
    O3       O        0.26840    0.52600    0.97170    1.000
    O4       O        0.87860    0.12720    0.10540    1.000
    O5       O        0.12100    0.09980    0.05600    1.000
    O6       O        0.55920    0.57760    0.90640    1.000
    O7       O        0.78100    0.69800    0.92560    1.000
    O8       O        0.42530    0.72450    0.91730    1.000
    O9       O        0.65650    0.01660    0.69540    1.000
    O10      O        0.81720    0.06370    0.76040    1.000
    O11      O        0.58890    0.47040    0.47700    1.000
    O12      O        0.39560    0.34510    0.50710    1.000
    O13      O        0.23160    0.47400    0.47170    1.000
    O14      O        0.62140    0.87280    0.60540    1.000
    O15      O        0.37900    0.90020    0.55600    1.000
    O16      O        0.94080    0.42240    0.40640    1.000
    O17      O        0.71900    0.30200    0.42560    1.000
    O18      O        0.07470    0.27550    0.41730    1.000
    O19      O        0.84350    0.98340    0.19540    1.000
    O20      O        0.68280    0.93630    0.26040    1.000
    O21      O        0.08890    0.02960    0.52300    1.000
    O22      O        0.89560    0.15490    0.49290    1.000
    O23      O        0.73160    0.02600    0.52830    1.000
    O24      O        0.12140    0.62720    0.39460    1.000
    O25      O        0.87900    0.59980    0.44400    1.000
    O26      O        0.44080    0.07760    0.59360    1.000
    O27      O        0.21900    0.19800    0.57440    1.000
    O28      O        0.57470    0.22450    0.58270    1.000
    O29      O        0.34350    0.51660    0.80460    1.000
    O30      O        0.18280    0.56370    0.73960    1.000
    O31      O        0.41110    0.97040    0.02300    1.000
    O32      O        0.60440    0.84510    0.99290    1.000
    O33      O        0.76840    0.97400    0.02830    1.000
    O34      O        0.37860    0.37280    0.89460    1.000
    O35      O        0.62100    0.40020    0.94400    1.000
    O36      O        0.05920    0.92240    0.09360    1.000
    O37      O        0.28100    0.80200    0.07440    1.000
    O38      O        0.92530    0.77550    0.08270    1.000
    O39      O        0.15650    0.48340    0.30460    1.000
    O40      O        0.31720    0.43630    0.23960    1.000
