# CIF file generated by openbabel 3.1.0, see https://openbabel.org
data_I
_chemical_name_common 'XENMOU_clean'
_cell_length_a 6.3303
_cell_length_b 12.6819
_cell_length_c 15.6877
_cell_angle_alpha 95.711
_cell_angle_beta 99.773
_cell_angle_gamma 97.973
_space_group_name_H-M_alt 'P 1'
_space_group_name_Hall 'P 1'
loop_
    _symmetry_equiv_pos_as_xyz
    x,y,z
loop_
    _atom_site_label
    _atom_site_type_symbol
    _atom_site_fract_x
    _atom_site_fract_y
    _atom_site_fract_z
    _atom_site_occupancy
    Zn1      Zn       0.51997    0.95383    0.10046    1.000
    Zn2      Zn       0.05860    0.96181    0.18612    1.000
    H3       H        0.18820    0.73210    0.35650    1.000
    H4       H        0.57910    0.51410    0.41200    1.000
    H5       H        0.64050    0.68350    0.21130    1.000
    H6       H        0.11800    0.45970    0.25310    1.000
    H7       H        0.10440    0.30720    0.15830    1.000
    H8       H        0.45590    0.27030    0.10830    1.000
    H9       H        0.46900    0.42400    0.20370    1.000
    H10      H        0.93250    0.61570    0.52780    1.000
    H11      H        0.89730    0.74600    0.63610    1.000
    H12      H        0.52020    0.87400    0.65610    1.000
    H13      H        0.55150    0.74730    0.54320    1.000
    H14      H        0.71100    0.91350    0.87600    1.000
    C15      C        0.32980    0.80320    0.22010    1.000
    C16      C        0.40190    0.72010    0.27510    1.000
    C17      C        0.30040    0.69650    0.34430    1.000
    C18      C        0.36700    0.61980    0.39480    1.000
    C19      C        0.53510    0.56600    0.37810    1.000
    C20      C        0.63580    0.59210    0.30910    1.000
    C21      C        0.57150    0.66770    0.25730    1.000
    C22      C        0.79390    0.45600    0.23830    1.000
    C23      C        0.98470    0.42150    0.22430    1.000
    C24      C        0.97600    0.33040    0.16740    1.000
    C25      C        0.77880    0.27270    0.12340    1.000
    C26      C        0.58930    0.30820    0.13740    1.000
    C27      C        0.59700    0.40020    0.19470    1.000
    C28      C        0.77490    0.17300    0.06360    1.000
    C29      C        0.24430    0.67080    0.52460    1.000
    C30      C        0.04970    0.66870    0.55260    1.000
    C31      C        0.02990    0.74590    0.61810    1.000
    C32      C        0.20520    0.82300    0.65710    1.000
    C33      C        0.40100    0.82300    0.62960    1.000
    C34      C        0.42030    0.74680    0.56240    1.000
    C35      C        0.18520    0.90660    0.72890    1.000
    O36      O        0.74970    0.98040    0.89220    1.000
    O37      O        0.18700    0.08210    0.91300    1.000
    O38      O        0.42010    0.81840    0.15580    1.000
    O39      O        0.18160    0.85150    0.24300    1.000
    O40      O        0.81910    0.54620    0.29740    1.000
    O41      O        0.95280    0.15120    0.04790    1.000
    O42      O        0.59110    0.11520    0.03250    1.000
    O43      O        0.26140    0.58900    0.46110    1.000
    O44      O        0.35400    0.95480    0.77690    1.000
    O45      O        0.99200    0.92230    0.73430    1.000
    H46      H        0.81300    0.83865    0.08063    1.000
    Zn47     Zn       0.48003    0.04617    0.89954    1.000
    Zn48     Zn       0.94140    0.03819    0.81388    1.000
    H49      H        0.81180    0.26790    0.64350    1.000
    H50      H        0.42090    0.48590    0.58800    1.000
    H51      H        0.35950    0.31650    0.78870    1.000
    H52      H        0.88200    0.54030    0.74690    1.000
    H53      H        0.89560    0.69280    0.84170    1.000
    H54      H        0.54410    0.72970    0.89170    1.000
    H55      H        0.53100    0.57600    0.79630    1.000
    H56      H        0.06750    0.38430    0.47220    1.000
    H57      H        0.10270    0.25400    0.36390    1.000
    H58      H        0.47980    0.12600    0.34390    1.000
    H59      H        0.44850    0.25270    0.45680    1.000
    H60      H        0.28900    0.08650    0.12400    1.000
    C61      C        0.67020    0.19680    0.77990    1.000
    C62      C        0.59810    0.27990    0.72490    1.000
    C63      C        0.69960    0.30350    0.65570    1.000
    C64      C        0.63300    0.38020    0.60520    1.000
    C65      C        0.46490    0.43400    0.62190    1.000
    C66      C        0.36420    0.40790    0.69090    1.000
    C67      C        0.42850    0.33230    0.74270    1.000
    C68      C        0.20610    0.54400    0.76170    1.000
    C69      C        0.01530    0.57850    0.77570    1.000
    C70      C        0.02400    0.66960    0.83260    1.000
    C71      C        0.22120    0.72730    0.87660    1.000
    C72      C        0.41070    0.69180    0.86260    1.000
    C73      C        0.40300    0.59980    0.80530    1.000
    C74      C        0.22510    0.82700    0.93640    1.000
    C75      C        0.75570    0.32920    0.47540    1.000
    C76      C        0.95030    0.33130    0.44740    1.000
    C77      C        0.97010    0.25410    0.38190    1.000
    C78      C        0.79480    0.17700    0.34290    1.000
    C79      C        0.59900    0.17700    0.37040    1.000
    C80      C        0.57970    0.25320    0.43760    1.000
    C81      C        0.81480    0.09340    0.27110    1.000
    O82      O        0.25030    0.01960    0.10780    1.000
    O83      O        0.81300    0.91790    0.08700    1.000
    O84      O        0.57990    0.18160    0.84420    1.000
    O85      O        0.81840    0.14850    0.75700    1.000
    O86      O        0.18090    0.45380    0.70260    1.000
    O87      O        0.04720    0.84880    0.95210    1.000
    O88      O        0.40890    0.88480    0.96750    1.000
    O89      O        0.73860    0.41100    0.53890    1.000
    O90      O        0.64600    0.04520    0.22310    1.000
    O91      O        0.00800    0.07770    0.26570    1.000
    H92      H        0.18700    0.16135    0.91937    1.000
    Zn93     Zn       0.00000    0.00000    0.00000    1.000
