# CIF file generated by openbabel 3.1.0, see https://openbabel.org
data_I
_chemical_name_common 'image0'
_cell_length_a 15.712
_cell_length_b 10.03
_cell_length_c 18.656
_cell_angle_alpha 90
_cell_angle_beta 103.328
_cell_angle_gamma 90
_space_group_name_H-M_alt 'P 1'
_space_group_name_Hall 'P 1'
loop_
    _symmetry_equiv_pos_as_xyz
    x,y,z
loop_
    _atom_site_label
    _atom_site_type_symbol
    _atom_site_fract_x
    _atom_site_fract_y
    _atom_site_fract_z
    _atom_site_occupancy
    V1       V        0.16272    0.11690    0.08371    1.000
    V2       V        0.75412    0.04224    0.21608    1.000
    P1       P        0.15956    0.82785    0.16288    1.000
    P2       P        0.79416    0.87877    0.07898    1.000
    O1       O        0.79731    0.00050    0.12871    1.000
    O2       O        0.22816    0.71850    0.16835    1.000
    O3       O        0.16691    0.89870    0.23618    1.000
    O4       O        0.21090    0.14150    0.19037    1.000
    O5       O        0.16827    0.92340    0.10163    1.000
    O6       O        0.79919    0.93230    0.00404    1.000
    O7       O        0.71103    0.79810    0.07550    1.000
    C1       C        0.05280    0.75200    0.13970    1.000
    H1       H        0.04790    0.70050    0.09490    1.000
    H2       H        0.04810    0.69030    0.17860    1.000
    C2       C        0.97600    0.84920    0.12830    1.000
    H3       H        0.97740    0.90710    0.08700    1.000
    H4       H        0.98160    0.90440    0.17180    1.000
    C3       C        0.88780    0.77490    0.11350    1.000
    H5       H        0.88150    0.73350    0.15890    1.000
    H6       H        0.88880    0.70430    0.07820    1.000
    H7       H        0.21800    0.19800    0.19400    1.000
    V3       V        0.66272    0.61690    0.08371    1.000
    V4       V        0.25412    0.54224    0.21608    1.000
    P3       P        0.65956    0.32785    0.16288    1.000
    P4       P        0.29416    0.37877    0.07898    1.000
    O8       O        0.29731    0.50050    0.12871    1.000
    O9       O        0.72816    0.21850    0.16835    1.000
    O10      O        0.66691    0.39870    0.23618    1.000
    O11      O        0.71090    0.64150    0.19037    1.000
    O12      O        0.66827    0.42340    0.10163    1.000
    O13      O        0.29919    0.43230    0.00404    1.000
    O14      O        0.21103    0.29810    0.07550    1.000
    C4       C        0.55280    0.25200    0.13970    1.000
    H8       H        0.54790    0.20050    0.09490    1.000
    H9       H        0.54810    0.19030    0.17860    1.000
    C5       C        0.47600    0.34920    0.12830    1.000
    H10      H        0.47740    0.40710    0.08700    1.000
    H11      H        0.48160    0.40440    0.17180    1.000
    C6       C        0.38780    0.27490    0.11350    1.000
    H12      H        0.38150    0.23350    0.15890    1.000
    H13      H        0.38880    0.20430    0.07820    1.000
    H14      H        0.71800    0.69800    0.19400    1.000
    V5       V        0.83728    0.11690    0.41629    1.000
    V6       V        0.24588    0.04224    0.28392    1.000
    P5       P        0.84044    0.82785    0.33712    1.000
    P6       P        0.20584    0.87877    0.42102    1.000
    O15      O        0.20269    0.00050    0.37129    1.000
    O16      O        0.77184    0.71850    0.33165    1.000
    O17      O        0.83309    0.89870    0.26382    1.000
    O18      O        0.78910    0.14150    0.30963    1.000
    O19      O        0.83173    0.92340    0.39837    1.000
    O20      O        0.20081    0.93230    0.49596    1.000
    O21      O        0.28897    0.79810    0.42450    1.000
    C7       C        0.94720    0.75200    0.36030    1.000
    H15      H        0.95210    0.70050    0.40510    1.000
    H16      H        0.95190    0.69030    0.32140    1.000
    C8       C        0.02400    0.84920    0.37170    1.000
    H17      H        0.02260    0.90710    0.41300    1.000
    H18      H        0.01840    0.90440    0.32820    1.000
    C9       C        0.11220    0.77490    0.38650    1.000
    H19      H        0.11850    0.73350    0.34110    1.000
    H20      H        0.11120    0.70430    0.42180    1.000
    H21      H        0.78200    0.19800    0.30600    1.000
    V7       V        0.33728    0.61690    0.41629    1.000
    V8       V        0.74588    0.54224    0.28392    1.000
    P7       P        0.34044    0.32785    0.33712    1.000
    P8       P        0.70584    0.37877    0.42102    1.000
    O22      O        0.70269    0.50050    0.37129    1.000
    O23      O        0.27184    0.21850    0.33165    1.000
    O24      O        0.33309    0.39870    0.26382    1.000
    O25      O        0.28910    0.64150    0.30963    1.000
    O26      O        0.33173    0.42340    0.39837    1.000
    O27      O        0.70081    0.43230    0.49596    1.000
    O28      O        0.78897    0.29810    0.42450    1.000
    C10      C        0.44720    0.25200    0.36030    1.000
    H22      H        0.45210    0.20050    0.40510    1.000
    H23      H        0.45190    0.19030    0.32140    1.000
    C11      C        0.52400    0.34920    0.37170    1.000
    H24      H        0.52260    0.40710    0.41300    1.000
    H25      H        0.51840    0.40440    0.32820    1.000
    C12      C        0.61220    0.27490    0.38650    1.000
    H26      H        0.61850    0.23350    0.34110    1.000
    H27      H        0.61120    0.20430    0.42180    1.000
    H28      H        0.28200    0.69800    0.30600    1.000
    V9       V        0.83728    0.88310    0.91629    1.000
    V10      V        0.24588    0.95776    0.78392    1.000
    P9       P        0.84044    0.17215    0.83712    1.000
    P10      P        0.20584    0.12123    0.92102    1.000
    O29      O        0.20269    0.99950    0.87129    1.000
    O30      O        0.77184    0.28150    0.83165    1.000
    O31      O        0.83309    0.10130    0.76382    1.000
    O32      O        0.78910    0.85850    0.80963    1.000
    O33      O        0.83173    0.07660    0.89837    1.000
    O34      O        0.20081    0.06770    0.99596    1.000
    O35      O        0.28897    0.20190    0.92450    1.000
    C13      C        0.94720    0.24800    0.86030    1.000
    H29      H        0.95210    0.29950    0.90510    1.000
    H30      H        0.95190    0.30970    0.82140    1.000
    C14      C        0.02400    0.15080    0.87170    1.000
    H31      H        0.02260    0.09290    0.91300    1.000
    H32      H        0.01840    0.09560    0.82820    1.000
    C15      C        0.11220    0.22510    0.88650    1.000
    H33      H        0.11850    0.26650    0.84110    1.000
    H34      H        0.11120    0.29570    0.92180    1.000
    H35      H        0.78200    0.80200    0.80600    1.000
    V11      V        0.33728    0.38310    0.91629    1.000
    V12      V        0.74588    0.45776    0.78392    1.000
    P11      P        0.34044    0.67215    0.83712    1.000
    P12      P        0.70584    0.62123    0.92102    1.000
    O36      O        0.70269    0.49950    0.87129    1.000
    O37      O        0.27184    0.78150    0.83165    1.000
    O38      O        0.33309    0.60130    0.76382    1.000
    O39      O        0.28910    0.35850    0.80963    1.000
    O40      O        0.33173    0.57660    0.89837    1.000
    O41      O        0.70081    0.56770    0.99596    1.000
    O42      O        0.78897    0.70190    0.92450    1.000
    C16      C        0.44720    0.74800    0.86030    1.000
    H36      H        0.45210    0.79950    0.90510    1.000
    H37      H        0.45190    0.80970    0.82140    1.000
    C17      C        0.52400    0.65080    0.87170    1.000
    H38      H        0.52260    0.59290    0.91300    1.000
    H39      H        0.51840    0.59560    0.82820    1.000
    C18      C        0.61220    0.72510    0.88650    1.000
    H40      H        0.61850    0.76650    0.84110    1.000
    H41      H        0.61120    0.79570    0.92180    1.000
    H42      H        0.28200    0.30200    0.80600    1.000
    V13      V        0.16272    0.88310    0.58371    1.000
    V14      V        0.75412    0.95776    0.71608    1.000
    P13      P        0.15956    0.17215    0.66288    1.000
    P14      P        0.79416    0.12123    0.57898    1.000
    O43      O        0.79731    0.99950    0.62871    1.000
    O44      O        0.22816    0.28150    0.66835    1.000
    O45      O        0.16691    0.10130    0.73618    1.000
    O46      O        0.21090    0.85850    0.69037    1.000
    O47      O        0.16827    0.07660    0.60163    1.000
    O48      O        0.79919    0.06770    0.50404    1.000
    O49      O        0.71103    0.20190    0.57550    1.000
    C19      C        0.05280    0.24800    0.63970    1.000
    H43      H        0.04790    0.29950    0.59490    1.000
    H44      H        0.04810    0.30970    0.67860    1.000
    C20      C        0.97600    0.15080    0.62830    1.000
    H45      H        0.97740    0.09290    0.58700    1.000
    H46      H        0.98160    0.09560    0.67180    1.000
    C21      C        0.88780    0.22510    0.61350    1.000
    H47      H        0.88150    0.26650    0.65890    1.000
    H48      H        0.88880    0.29570    0.57820    1.000
    H49      H        0.21800    0.80200    0.69400    1.000
    V15      V        0.66272    0.38310    0.58371    1.000
    V16      V        0.25412    0.45776    0.71608    1.000
    P15      P        0.65956    0.67215    0.66288    1.000
    P16      P        0.29416    0.62123    0.57898    1.000
    O50      O        0.29731    0.49950    0.62871    1.000
    O51      O        0.72816    0.78150    0.66835    1.000
    O52      O        0.66691    0.60130    0.73618    1.000
    O53      O        0.71090    0.35850    0.69037    1.000
    O54      O        0.66827    0.57660    0.60163    1.000
    O55      O        0.29919    0.56770    0.50404    1.000
    O56      O        0.21103    0.70190    0.57550    1.000
    C22      C        0.55280    0.74800    0.63970    1.000
    H50      H        0.54790    0.79950    0.59490    1.000
    H51      H        0.54810    0.80970    0.67860    1.000
    C23      C        0.47600    0.65080    0.62830    1.000
    H52      H        0.47740    0.59290    0.58700    1.000
    H53      H        0.48160    0.59560    0.67180    1.000
    C24      C        0.38780    0.72510    0.61350    1.000
    H54      H        0.38150    0.76650    0.65890    1.000
    H55      H        0.38880    0.79570    0.57820    1.000
    H56      H        0.71800    0.30200    0.69400    1.000
