# CIF file generated by openbabel 3.1.0, see https://openbabel.org
data_I
_chemical_name_common 'image0'
_cell_length_a 10.8722
_cell_length_b 10.8722
_cell_length_c 8.9098
_cell_angle_alpha 90
_cell_angle_beta 90
_cell_angle_gamma 90
_space_group_name_H-M_alt 'P 1'
_space_group_name_Hall 'P 1'
loop_
    _symmetry_equiv_pos_as_xyz
    x,y,z
loop_
    _atom_site_label
    _atom_site_type_symbol
    _atom_site_fract_x
    _atom_site_fract_y
    _atom_site_fract_z
    _atom_site_occupancy
    Ni1      Ni       0.10031    0.89726    0.09935    1.000
    Ni2      Ni       0.44291    0.61527    0.92192    1.000
    F1       F        0.09810    0.08310    0.12290    1.000
    F2       F        0.09510    0.91480    0.32740    1.000
    F3       F        0.40510    0.43450    0.95050    1.000
    F4       F        0.44050    0.61990    0.14980    1.000
    S1       S        0.16034    0.60755    0.03200    1.000
    O1       O        0.10570    0.70830    0.12120    1.000
    O2       O        0.26130    0.65910    0.93850    1.000
    O3       O        0.20710    0.51260    0.13630    1.000
    O4       O        0.06600    0.55400    0.93530    1.000
    Ni3      Ni       0.89969    0.10274    0.59935    1.000
    Ni4      Ni       0.55709    0.38473    0.42192    1.000
    F5       F        0.90190    0.91690    0.62290    1.000
    F6       F        0.90490    0.08520    0.82740    1.000
    F7       F        0.59490    0.56550    0.45050    1.000
    F8       F        0.55950    0.38010    0.64980    1.000
    S2       S        0.83966    0.39245    0.53200    1.000
    O5       O        0.89430    0.29170    0.62120    1.000
    O6       O        0.73870    0.34090    0.43850    1.000
    O7       O        0.79290    0.48740    0.63630    1.000
    O8       O        0.93400    0.44600    0.43530    1.000
    Ni5      Ni       0.10274    0.10031    0.34935    1.000
    Ni6      Ni       0.38473    0.44291    0.17192    1.000
    F9       F        0.91690    0.09810    0.37290    1.000
    F10      F        0.08520    0.09510    0.57740    1.000
    F11      F        0.56550    0.40510    0.20050    1.000
    F12      F        0.38010    0.44050    0.39980    1.000
    S3       S        0.39245    0.16034    0.28200    1.000
    O9       O        0.29170    0.10570    0.37120    1.000
    O10      O        0.34090    0.26130    0.18850    1.000
    O11      O        0.48740    0.20710    0.38630    1.000
    O12      O        0.44600    0.06600    0.18530    1.000
    Ni7      Ni       0.89726    0.89969    0.84935    1.000
    Ni8      Ni       0.61527    0.55709    0.67192    1.000
    F13      F        0.08310    0.90190    0.87290    1.000
    F14      F        0.91480    0.90490    0.07740    1.000
    F15      F        0.43450    0.59490    0.70050    1.000
    F16      F        0.61990    0.55950    0.89980    1.000
    S4       S        0.60755    0.83966    0.78200    1.000
    O13      O        0.70830    0.89430    0.87120    1.000
    O14      O        0.65910    0.73870    0.68850    1.000
    O15      O        0.51260    0.79290    0.88630    1.000
    O16      O        0.55400    0.93400    0.68530    1.000
