# CIF file generated by openbabel 3.1.0, see https://openbabel.org
data_I
_chemical_name_common 'OHAKIS_clean'
_cell_length_a 16.72
_cell_length_b 17.081
_cell_length_c 18.432
_cell_angle_alpha 90
_cell_angle_beta 90
_cell_angle_gamma 90
_space_group_name_H-M_alt 'P 1'
_space_group_name_Hall 'P 1'
loop_
    _symmetry_equiv_pos_as_xyz
    x,y,z
loop_
    _atom_site_label
    _atom_site_type_symbol
    _atom_site_fract_x
    _atom_site_fract_y
    _atom_site_fract_z
    _atom_site_occupancy
    Cd1      Cd       0.77687    0.99150    0.51910    1.000
    Cd2      Cd       0.27687    0.50850    0.48090    1.000
    Cd3      Cd       0.27687    0.99150    0.98090    1.000
    Cd4      Cd       0.77687    0.50850    0.01910    1.000
    H1       H        0.59750    0.93920    0.61360    1.000
    H2       H        0.47860    0.02230    0.61900    1.000
    H3       H        0.64080    0.12310    0.49280    1.000
    H4       H        0.38730    0.11340    0.55320    1.000
    H5       H        0.31080    0.22410    0.53490    1.000
    H6       H        0.51050    0.35160    0.50960    1.000
    H7       H        0.58700    0.24230    0.53060    1.000
    H8       H        0.68970    0.04610    0.35820    1.000
    H9       H        0.68720    0.96940    0.24530    1.000
    H10      H        0.81390    0.85530    0.39370    1.000
    H11      H        0.77390    0.73960    0.33140    1.000
    H12      H        0.79160    0.63680    0.25020    1.000
    H13      H        0.77660    0.78460    0.08270    1.000
    H14      H        0.76440    0.88930    0.16160    1.000
    H15      H        0.09750    0.56080    0.38640    1.000
    H16      H        0.97860    0.47770    0.38100    1.000
    H17      H        0.14080    0.37690    0.50720    1.000
    H18      H        0.88730    0.38660    0.44680    1.000
    H19      H        0.81080    0.27590    0.46510    1.000
    H20      H        0.01050    0.14840    0.49040    1.000
    H21      H        0.08700    0.25770    0.46940    1.000
    H22      H        0.18970    0.45390    0.64180    1.000
    H23      H        0.18720    0.53060    0.75470    1.000
    H24      H        0.31390    0.64470    0.60630    1.000
    H25      H        0.27390    0.76040    0.66860    1.000
    H26      H        0.29160    0.86320    0.74980    1.000
    H27      H        0.27660    0.71540    0.91730    1.000
    H28      H        0.26440    0.61070    0.83840    1.000
    H29      H        0.09750    0.93920    0.88640    1.000
    H30      H        0.97860    0.02230    0.88100    1.000
    H31      H        0.14080    0.12310    0.00720    1.000
    H32      H        0.88730    0.11340    0.94680    1.000
    H33      H        0.81080    0.22410    0.96510    1.000
    H34      H        0.01050    0.35160    0.99040    1.000
    H35      H        0.08700    0.24230    0.96940    1.000
    H36      H        0.18970    0.04610    0.14180    1.000
    H37      H        0.18720    0.96940    0.25470    1.000
    H38      H        0.31390    0.85530    0.10630    1.000
    H39      H        0.27390    0.73960    0.16860    1.000
    H40      H        0.29160    0.63680    0.24980    1.000
    H41      H        0.27660    0.78460    0.41730    1.000
    H42      H        0.26440    0.88930    0.33840    1.000
    H43      H        0.59750    0.56080    0.11360    1.000
    H44      H        0.47860    0.47770    0.11900    1.000
    H45      H        0.64080    0.37690    0.99280    1.000
    H46      H        0.38730    0.38660    0.05320    1.000
    H47      H        0.31080    0.27590    0.03490    1.000
    H48      H        0.51050    0.14840    0.00960    1.000
    H49      H        0.58700    0.25770    0.03060    1.000
    H50      H        0.68970    0.45390    0.85820    1.000
    H51      H        0.68720    0.53060    0.74530    1.000
    H52      H        0.81390    0.64470    0.89370    1.000
    H53      H        0.77390    0.76040    0.83140    1.000
    H54      H        0.79160    0.86320    0.75020    1.000
    H55      H        0.77660    0.71540    0.58270    1.000
    H56      H        0.76440    0.61070    0.66160    1.000
    C1       C        0.59140    0.98690    0.59000    1.000
    C2       C        0.52560    0.03260    0.59380    1.000
    C3       C        0.61590    0.08790    0.52400    1.000
    C4       C        0.49400    0.16610    0.54170    1.000
    C5       C        0.41200    0.16120    0.54420    1.000
    C6       C        0.36630    0.22760    0.53340    1.000
    C7       C        0.40240    0.29960    0.52030    1.000
    C8       C        0.48580    0.30390    0.51870    1.000
    C9       C        0.53160    0.23860    0.53030    1.000
    C10      C        0.35240    0.37050    0.50840    1.000
    C11      C        0.71460    0.99810    0.35100    1.000
    C12      C        0.71270    0.95580    0.28840    1.000
    C13      C        0.78290    0.89330    0.37100    1.000
    C14      C        0.76820    0.82470    0.25270    1.000
    C15      C        0.77560    0.74850    0.28170    1.000
    C16      C        0.78530    0.68740    0.23260    1.000
    C17      C        0.78600    0.69970    0.15900    1.000
    C18      C        0.77710    0.77600    0.13250    1.000
    C19      C        0.76910    0.83860    0.17940    1.000
    C20      C        0.79280    0.63100    0.10840    1.000
    C21      C        0.09140    0.51310    0.41000    1.000
    C22      C        0.02560    0.46740    0.40620    1.000
    C23      C        0.11590    0.41210    0.47600    1.000
    C24      C        0.99400    0.33390    0.45830    1.000
    C25      C        0.91200    0.33880    0.45580    1.000
    C26      C        0.86630    0.27240    0.46660    1.000
    C27      C        0.90240    0.20040    0.47970    1.000
    C28      C        0.98580    0.19610    0.48130    1.000
    C29      C        0.03160    0.26140    0.46970    1.000
    C30      C        0.85240    0.12950    0.49160    1.000
    C31      C        0.21460    0.50190    0.64900    1.000
    C32      C        0.21270    0.54420    0.71160    1.000
    C33      C        0.28290    0.60670    0.62900    1.000
    C34      C        0.26820    0.67530    0.74730    1.000
    C35      C        0.27560    0.75150    0.71830    1.000
    C36      C        0.28530    0.81260    0.76740    1.000
    C37      C        0.28600    0.80030    0.84100    1.000
    C38      C        0.27710    0.72400    0.86750    1.000
    C39      C        0.26910    0.66140    0.82060    1.000
    C40      C        0.29280    0.86900    0.89160    1.000
    C41      C        0.09140    0.98690    0.91000    1.000
    C42      C        0.02560    0.03260    0.90620    1.000
    C43      C        0.11590    0.08790    0.97600    1.000
    C44      C        0.99400    0.16610    0.95830    1.000
    C45      C        0.91200    0.16120    0.95580    1.000
    C46      C        0.86630    0.22760    0.96660    1.000
    C47      C        0.90240    0.29960    0.97970    1.000
    C48      C        0.98580    0.30390    0.98130    1.000
    C49      C        0.03160    0.23860    0.96970    1.000
    C50      C        0.85240    0.37050    0.99160    1.000
    C51      C        0.21460    0.99810    0.14900    1.000
    C52      C        0.21270    0.95580    0.21160    1.000
    C53      C        0.28290    0.89330    0.12900    1.000
    C54      C        0.26820    0.82470    0.24730    1.000
    C55      C        0.27560    0.74850    0.21830    1.000
    C56      C        0.28530    0.68740    0.26740    1.000
    C57      C        0.28600    0.69970    0.34100    1.000
    C58      C        0.27710    0.77600    0.36750    1.000
    C59      C        0.26910    0.83860    0.32060    1.000
    C60      C        0.29280    0.63100    0.39160    1.000
    C61      C        0.59140    0.51310    0.09000    1.000
    C62      C        0.52560    0.46740    0.09380    1.000
    C63      C        0.61590    0.41210    0.02400    1.000
    C64      C        0.49400    0.33390    0.04170    1.000
    C65      C        0.41200    0.33880    0.04420    1.000
    C66      C        0.36630    0.27240    0.03340    1.000
    C67      C        0.40240    0.20040    0.02030    1.000
    C68      C        0.48580    0.19610    0.01870    1.000
    C69      C        0.53160    0.26140    0.03030    1.000
    C70      C        0.35240    0.12950    0.00840    1.000
    C71      C        0.71460    0.50190    0.85100    1.000
    C72      C        0.71270    0.54420    0.78840    1.000
    C73      C        0.78290    0.60670    0.87100    1.000
    C74      C        0.76820    0.67530    0.75270    1.000
    C75      C        0.77560    0.75150    0.78170    1.000
    C76      C        0.78530    0.81260    0.73260    1.000
    C77      C        0.78600    0.80030    0.65900    1.000
    C78      C        0.77710    0.72400    0.63250    1.000
    C79      C        0.76910    0.66140    0.67940    1.000
    C80      C        0.79280    0.86900    0.60840    1.000
    N1       N        0.64870    0.02130    0.54590    1.000
    N2       N        0.54260    0.09860    0.55190    1.000
    N3       N        0.75940    0.95840    0.40200    1.000
    N4       N        0.75640    0.88850    0.30190    1.000
    N5       N        0.14870    0.47870    0.45410    1.000
    N6       N        0.04260    0.40140    0.44810    1.000
    N7       N        0.25940    0.54160    0.59800    1.000
    N8       N        0.25640    0.61150    0.69810    1.000
    N9       N        0.14870    0.02130    0.95410    1.000
    N10      N        0.04260    0.09860    0.94810    1.000
    N11      N        0.25940    0.95840    0.09800    1.000
    N12      N        0.25640    0.88850    0.19810    1.000
    N13      N        0.64870    0.47870    0.04590    1.000
    N14      N        0.54260    0.40140    0.05190    1.000
    N15      N        0.75940    0.54160    0.90200    1.000
    N16      N        0.75640    0.61150    0.80190    1.000
    O1       O        0.38470    0.43190    0.48340    1.000
    O2       O        0.27900    0.36800    0.52220    1.000
    O3       O        0.79870    0.64450    0.04070    1.000
    O4       O        0.79000    0.56340    0.13370    1.000
    O5       O        0.88470    0.06810    0.51660    1.000
    O6       O        0.77900    0.13200    0.47780    1.000
    O7       O        0.29870    0.85550    0.95930    1.000
    O8       O        0.29000    0.93660    0.86630    1.000
    O9       O        0.88470    0.43190    0.01660    1.000
    O10      O        0.77900    0.36800    0.97780    1.000
    O11      O        0.29870    0.64450    0.45930    1.000
    O12      O        0.29000    0.56340    0.36630    1.000
    O13      O        0.38470    0.06810    0.98340    1.000
    O14      O        0.27900    0.13200    0.02220    1.000
    O15      O        0.79870    0.85550    0.54070    1.000
    O16      O        0.79000    0.93660    0.63370    1.000
    Cd5      Cd       0.72313    0.00850    0.01910    1.000
    Cd6      Cd       0.22313    0.49150    0.98090    1.000
    Cd7      Cd       0.22313    0.00850    0.48090    1.000
    Cd8      Cd       0.72313    0.49150    0.51910    1.000
    H57      H        0.90250    0.06080    0.11360    1.000
    H58      H        0.02140    0.97770    0.11900    1.000
    H59      H        0.85920    0.87690    0.99280    1.000
    H60      H        0.11270    0.88660    0.05320    1.000
    H61      H        0.18920    0.77590    0.03490    1.000
    H62      H        0.98950    0.64840    0.00960    1.000
    H63      H        0.91300    0.75770    0.03060    1.000
    H64      H        0.81030    0.95390    0.85820    1.000
    H65      H        0.81280    0.03060    0.74530    1.000
    H66      H        0.68610    0.14470    0.89370    1.000
    H67      H        0.72610    0.26040    0.83140    1.000
    H68      H        0.70840    0.36320    0.75020    1.000
    H69      H        0.72340    0.21540    0.58270    1.000
    H70      H        0.73560    0.11070    0.66160    1.000
    H71      H        0.40250    0.43920    0.88640    1.000
    H72      H        0.52140    0.52230    0.88100    1.000
    H73      H        0.35920    0.62310    0.00720    1.000
    H74      H        0.61270    0.61340    0.94680    1.000
    H75      H        0.68920    0.72410    0.96510    1.000
    H76      H        0.48950    0.85160    0.99040    1.000
    H77      H        0.41300    0.74230    0.96940    1.000
    H78      H        0.31030    0.54610    0.14180    1.000
    H79      H        0.31280    0.46940    0.25470    1.000
    H80      H        0.18610    0.35530    0.10630    1.000
    H81      H        0.22610    0.23960    0.16860    1.000
    H82      H        0.20840    0.13680    0.24980    1.000
    H83      H        0.22340    0.28460    0.41730    1.000
    H84      H        0.23560    0.38930    0.33840    1.000
    H85      H        0.40250    0.06080    0.38640    1.000
    H86      H        0.52140    0.97770    0.38100    1.000
    H87      H        0.35920    0.87690    0.50720    1.000
    H88      H        0.61270    0.88660    0.44680    1.000
    H89      H        0.68920    0.77590    0.46510    1.000
    H90      H        0.48950    0.64840    0.49040    1.000
    H91      H        0.41300    0.75770    0.46940    1.000
    H92      H        0.31030    0.95390    0.64180    1.000
    H93      H        0.31280    0.03060    0.75470    1.000
    H94      H        0.18610    0.14470    0.60630    1.000
    H95      H        0.22610    0.26040    0.66860    1.000
    H96      H        0.20840    0.36320    0.74980    1.000
    H97      H        0.22340    0.21540    0.91730    1.000
    H98      H        0.23560    0.11070    0.83840    1.000
    H99      H        0.90250    0.43920    0.61360    1.000
    H100     H        0.02140    0.52230    0.61900    1.000
    H101     H        0.85920    0.62310    0.49280    1.000
    H102     H        0.11270    0.61340    0.55320    1.000
    H103     H        0.18920    0.72410    0.53490    1.000
    H104     H        0.98950    0.85160    0.50960    1.000
    H105     H        0.91300    0.74230    0.53060    1.000
    H106     H        0.81030    0.54610    0.35820    1.000
    H107     H        0.81280    0.46940    0.24530    1.000
    H108     H        0.68610    0.35530    0.39370    1.000
    H109     H        0.72610    0.23960    0.33140    1.000
    H110     H        0.70840    0.13680    0.25020    1.000
    H111     H        0.72340    0.28460    0.08270    1.000
    H112     H        0.73560    0.38930    0.16160    1.000
    C81      C        0.90860    0.01310    0.09000    1.000
    C82      C        0.97440    0.96740    0.09380    1.000
    C83      C        0.88410    0.91210    0.02400    1.000
    C84      C        0.00600    0.83390    0.04170    1.000
    C85      C        0.08800    0.83880    0.04420    1.000
    C86      C        0.13370    0.77240    0.03340    1.000
    C87      C        0.09760    0.70040    0.02030    1.000
    C88      C        0.01420    0.69610    0.01870    1.000
    C89      C        0.96840    0.76140    0.03030    1.000
    C90      C        0.14760    0.62950    0.00840    1.000
    C91      C        0.78540    0.00190    0.85100    1.000
    C92      C        0.78730    0.04420    0.78840    1.000
    C93      C        0.71710    0.10670    0.87100    1.000
    C94      C        0.73180    0.17530    0.75270    1.000
    C95      C        0.72440    0.25150    0.78170    1.000
    C96      C        0.71470    0.31260    0.73260    1.000
    C97      C        0.71400    0.30030    0.65900    1.000
    C98      C        0.72290    0.22400    0.63250    1.000
    C99      C        0.73090    0.16140    0.67940    1.000
    C100     C        0.70720    0.36900    0.60840    1.000
    C101     C        0.40860    0.48690    0.91000    1.000
    C102     C        0.47440    0.53260    0.90620    1.000
    C103     C        0.38410    0.58790    0.97600    1.000
    C104     C        0.50600    0.66610    0.95830    1.000
    C105     C        0.58800    0.66120    0.95580    1.000
    C106     C        0.63370    0.72760    0.96660    1.000
    C107     C        0.59760    0.79960    0.97970    1.000
    C108     C        0.51420    0.80390    0.98130    1.000
    C109     C        0.46840    0.73860    0.96970    1.000
    C110     C        0.64760    0.87050    0.99160    1.000
    C111     C        0.28540    0.49810    0.14900    1.000
    C112     C        0.28730    0.45580    0.21160    1.000
    C113     C        0.21710    0.39330    0.12900    1.000
    C114     C        0.23180    0.32470    0.24730    1.000
    C115     C        0.22440    0.24850    0.21830    1.000
    C116     C        0.21470    0.18740    0.26740    1.000
    C117     C        0.21400    0.19970    0.34100    1.000
    C118     C        0.22290    0.27600    0.36750    1.000
    C119     C        0.23090    0.33860    0.32060    1.000
    C120     C        0.20720    0.13100    0.39160    1.000
    C121     C        0.40860    0.01310    0.41000    1.000
    C122     C        0.47440    0.96740    0.40620    1.000
    C123     C        0.38410    0.91210    0.47600    1.000
    C124     C        0.50600    0.83390    0.45830    1.000
    C125     C        0.58800    0.83880    0.45580    1.000
    C126     C        0.63370    0.77240    0.46660    1.000
    C127     C        0.59760    0.70040    0.47970    1.000
    C128     C        0.51420    0.69610    0.48130    1.000
    C129     C        0.46840    0.76140    0.46970    1.000
    C130     C        0.64760    0.62950    0.49160    1.000
    C131     C        0.28540    0.00190    0.64900    1.000
    C132     C        0.28730    0.04420    0.71160    1.000
    C133     C        0.21710    0.10670    0.62900    1.000
    C134     C        0.23180    0.17530    0.74730    1.000
    C135     C        0.22440    0.25150    0.71830    1.000
    C136     C        0.21470    0.31260    0.76740    1.000
    C137     C        0.21400    0.30030    0.84100    1.000
    C138     C        0.22290    0.22400    0.86750    1.000
    C139     C        0.23090    0.16140    0.82060    1.000
    C140     C        0.20720    0.36900    0.89160    1.000
    C141     C        0.90860    0.48690    0.59000    1.000
    C142     C        0.97440    0.53260    0.59380    1.000
    C143     C        0.88410    0.58790    0.52400    1.000
    C144     C        0.00600    0.66610    0.54170    1.000
    C145     C        0.08800    0.66120    0.54420    1.000
    C146     C        0.13370    0.72760    0.53340    1.000
    C147     C        0.09760    0.79960    0.52030    1.000
    C148     C        0.01420    0.80390    0.51870    1.000
    C149     C        0.96840    0.73860    0.53030    1.000
    C150     C        0.14760    0.87050    0.50840    1.000
    C151     C        0.78540    0.49810    0.35100    1.000
    C152     C        0.78730    0.45580    0.28840    1.000
    C153     C        0.71710    0.39330    0.37100    1.000
    C154     C        0.73180    0.32470    0.25270    1.000
    C155     C        0.72440    0.24850    0.28170    1.000
    C156     C        0.71470    0.18740    0.23260    1.000
    C157     C        0.71400    0.19970    0.15900    1.000
    C158     C        0.72290    0.27600    0.13250    1.000
    C159     C        0.73090    0.33860    0.17940    1.000
    C160     C        0.70720    0.13100    0.10840    1.000
    N17      N        0.85130    0.97870    0.04590    1.000
    N18      N        0.95740    0.90140    0.05190    1.000
    N19      N        0.74060    0.04160    0.90200    1.000
    N20      N        0.74360    0.11150    0.80190    1.000
    N21      N        0.35130    0.52130    0.95410    1.000
    N22      N        0.45740    0.59860    0.94810    1.000
    N23      N        0.24060    0.45840    0.09800    1.000
    N24      N        0.24360    0.38850    0.19810    1.000
    N25      N        0.35130    0.97870    0.45410    1.000
    N26      N        0.45740    0.90140    0.44810    1.000
    N27      N        0.24060    0.04160    0.59800    1.000
    N28      N        0.24360    0.11150    0.69810    1.000
    N29      N        0.85130    0.52130    0.54590    1.000
    N30      N        0.95740    0.59860    0.55190    1.000
    N31      N        0.74060    0.45840    0.40200    1.000
    N32      N        0.74360    0.38850    0.30190    1.000
    O17      O        0.11530    0.56810    0.98340    1.000
    O18      O        0.22100    0.63200    0.02220    1.000
    O19      O        0.70130    0.35550    0.54070    1.000
    O20      O        0.71000    0.43660    0.63370    1.000
    O21      O        0.61530    0.93190    0.01660    1.000
    O22      O        0.72100    0.86800    0.97780    1.000
    O23      O        0.20130    0.14450    0.45930    1.000
    O24      O        0.21000    0.06340    0.36630    1.000
    O25      O        0.61530    0.56810    0.51660    1.000
    O26      O        0.72100    0.63200    0.47780    1.000
    O27      O        0.20130    0.35550    0.95930    1.000
    O28      O        0.21000    0.43660    0.86630    1.000
    O29      O        0.11530    0.93190    0.48340    1.000
    O30      O        0.22100    0.86800    0.52220    1.000
    O31      O        0.70130    0.14450    0.04070    1.000
    O32      O        0.71000    0.06340    0.13370    1.000
