# CIF file generated by openbabel 3.1.0, see https://openbabel.org
data_I
_chemical_name_common 'image0'
_cell_length_a 16.86
_cell_length_b 24.513
_cell_length_c 11.92
_cell_angle_alpha 90
_cell_angle_beta 109.392
_cell_angle_gamma 90
_space_group_name_H-M_alt 'P 1'
_space_group_name_Hall 'P 1'
loop_
    _symmetry_equiv_pos_as_xyz
    x,y,z
loop_
    _atom_site_label
    _atom_site_type_symbol
    _atom_site_fract_x
    _atom_site_fract_y
    _atom_site_fract_z
    _atom_site_occupancy
    C1       C        0.17830    0.17431    0.79350    1.000
    C2       C        0.24910    0.19500    0.89750    1.000
    C3       C        0.23360    0.22381    0.98690    1.000
    H1       H        0.17850    0.23010    0.98380    1.000
    C4       C        0.30030    0.24369    0.08240    1.000
    H2       H        0.28940    0.26390    0.14170    1.000
    C5       C        0.38260    0.23359    0.08930    1.000
    C6       C        0.39690    0.20393    0.99930    1.000
    H3       H        0.45180    0.19590    0.00380    1.000
    C7       C        0.33100    0.18607    0.90300    1.000
    H4       H        0.34190    0.16780    0.84120    1.000
    C8       C        0.45210    0.25459    0.19130    1.000
    H5       H        0.43700    0.27460    0.24730    1.000
    C9       C        0.53320    0.24821    0.21220    1.000
    H6       H        0.54880    0.22720    0.15800    1.000
    C10      C        0.60190    0.27113    0.31310    1.000
    C11      C        0.68530    0.25877    0.32690    1.000
    H7       H        0.69730    0.23560    0.27280    1.000
    C12      C        0.75030    0.28054    0.41990    1.000
    H8       H        0.80560    0.27250    0.42700    1.000
    C13      C        0.58680    0.30557    0.39560    1.000
    H9       H        0.53170    0.31540    0.38670    1.000
    C14      C        0.80360    0.33827    0.60340    1.000
    C15      C        0.73380    0.31414    0.50240    1.000
    C16      C        0.65140    0.32551    0.49070    1.000
    H10      H        0.63940    0.34680    0.54760    1.000
    C17      C        0.05030    0.99430    0.81150    1.000
    H11      H        0.03950    0.97920    0.87660    1.000
    C18      C        0.08020    0.00303    0.65610    1.000
    H12      H        0.09470    0.99510    0.58910    1.000
    C19      C        0.95250    0.25738    0.33150    1.000
    H13      H        0.92640    0.26450    0.25100    1.000
    C20      C        0.01290    0.26758    0.51400    1.000
    H14      H        0.03780    0.28350    0.58830    1.000
    Cd1      Cd       0.05252    0.13687    0.60016    1.000
    Cd2      Cd       0.00662    0.12004    0.86633    1.000
    Cd3      Cd       0.93377    0.12551    0.29091    1.000
    N1       N        0.06555    0.05234    0.68570    1.000
    N2       N        0.04555    0.04700    0.78800    1.000
    N3       N        0.07203    0.96493    0.73250    1.000
    N4       N        0.96496    0.20822    0.37610    1.000
    N5       N        0.00525    0.21495    0.49710    1.000
    N6       N        0.98098    0.29650    0.41310    1.000
    O1       O        0.78988    0.35169    0.69550    1.000
    O2       O        0.87495    0.34399    0.59230    1.000
    O3       O        0.10550    0.17158    0.80070    1.000
    O4       O        0.19279    0.16085    0.70090    1.000
    C21      C        0.82170    0.67431    0.70650    1.000
    C22      C        0.75090    0.69500    0.60250    1.000
    C23      C        0.76640    0.72381    0.51310    1.000
    H15      H        0.82150    0.73010    0.51620    1.000
    C24      C        0.69970    0.74369    0.41760    1.000
    H16      H        0.71060    0.76390    0.35830    1.000
    C25      C        0.61740    0.73359    0.41070    1.000
    C26      C        0.60310    0.70393    0.50070    1.000
    H17      H        0.54820    0.69590    0.49620    1.000
    C27      C        0.66900    0.68607    0.59700    1.000
    H18      H        0.65810    0.66780    0.65880    1.000
    C28      C        0.54790    0.75459    0.30870    1.000
    H19      H        0.56300    0.77460    0.25270    1.000
    C29      C        0.46680    0.74821    0.28780    1.000
    H20      H        0.45120    0.72720    0.34200    1.000
    C30      C        0.39810    0.77113    0.18690    1.000
    C31      C        0.31470    0.75877    0.17310    1.000
    H21      H        0.30270    0.73560    0.22720    1.000
    C32      C        0.24970    0.78054    0.08010    1.000
    H22      H        0.19440    0.77250    0.07300    1.000
    C33      C        0.41320    0.80557    0.10440    1.000
    H23      H        0.46830    0.81540    0.11330    1.000
    C34      C        0.19640    0.83827    0.89660    1.000
    C35      C        0.26620    0.81414    0.99760    1.000
    C36      C        0.34860    0.82551    0.00930    1.000
    H24      H        0.36060    0.84680    0.95240    1.000
    C37      C        0.94970    0.49430    0.68850    1.000
    H25      H        0.96050    0.47920    0.62340    1.000
    C38      C        0.91980    0.50303    0.84390    1.000
    H26      H        0.90530    0.49510    0.91090    1.000
    C39      C        0.04750    0.75738    0.16850    1.000
    H27      H        0.07360    0.76450    0.24900    1.000
    C40      C        0.98710    0.76758    0.98600    1.000
    H28      H        0.96220    0.78350    0.91170    1.000
    Cd4      Cd       0.94748    0.63687    0.89984    1.000
    Cd5      Cd       0.99338    0.62004    0.63367    1.000
    Cd6      Cd       0.06623    0.62551    0.20909    1.000
    N7       N        0.93445    0.55234    0.81430    1.000
    N8       N        0.95445    0.54700    0.71200    1.000
    N9       N        0.92797    0.46493    0.76750    1.000
    N10      N        0.03504    0.70822    0.12390    1.000
    N11      N        0.99475    0.71495    0.00290    1.000
    N12      N        0.01902    0.79650    0.08690    1.000
    O5       O        0.21012    0.85169    0.80450    1.000
    O6       O        0.12505    0.84399    0.90770    1.000
    O7       O        0.89450    0.67158    0.69930    1.000
    O8       O        0.80721    0.66085    0.79910    1.000
    C41      C        0.82170    0.82569    0.20650    1.000
    C42      C        0.75090    0.80500    0.10250    1.000
    C43      C        0.76640    0.77619    0.01310    1.000
    H29      H        0.82150    0.76990    0.01620    1.000
    C44      C        0.69970    0.75631    0.91760    1.000
    H30      H        0.71060    0.73610    0.85830    1.000
    C45      C        0.61740    0.76641    0.91070    1.000
    C46      C        0.60310    0.79607    0.00070    1.000
    H31      H        0.54820    0.80410    0.99620    1.000
    C47      C        0.66900    0.81393    0.09700    1.000
    H32      H        0.65810    0.83220    0.15880    1.000
    C48      C        0.54790    0.74541    0.80870    1.000
    H33      H        0.56300    0.72540    0.75270    1.000
    C49      C        0.46680    0.75179    0.78780    1.000
    H34      H        0.45120    0.77280    0.84200    1.000
    C50      C        0.39810    0.72887    0.68690    1.000
    C51      C        0.31470    0.74123    0.67310    1.000
    H35      H        0.30270    0.76440    0.72720    1.000
    C52      C        0.24970    0.71946    0.58010    1.000
    H36      H        0.19440    0.72750    0.57300    1.000
    C53      C        0.41320    0.69443    0.60440    1.000
    H37      H        0.46830    0.68460    0.61330    1.000
    C54      C        0.19640    0.66173    0.39660    1.000
    C55      C        0.26620    0.68586    0.49760    1.000
    C56      C        0.34860    0.67449    0.50930    1.000
    H38      H        0.36060    0.65320    0.45240    1.000
    C57      C        0.94970    0.00570    0.18850    1.000
    H39      H        0.96050    0.02080    0.12340    1.000
    C58      C        0.91980    0.99697    0.34390    1.000
    H40      H        0.90530    0.00490    0.41090    1.000
    C59      C        0.04750    0.74262    0.66850    1.000
    H41      H        0.07360    0.73550    0.74900    1.000
    C60      C        0.98710    0.73242    0.48600    1.000
    H42      H        0.96220    0.71650    0.41170    1.000
    Cd7      Cd       0.94748    0.86313    0.39984    1.000
    Cd8      Cd       0.99338    0.87996    0.13367    1.000
    Cd9      Cd       0.06623    0.87449    0.70909    1.000
    N13      N        0.93445    0.94766    0.31430    1.000
    N14      N        0.95445    0.95300    0.21200    1.000
    N15      N        0.92797    0.03507    0.26750    1.000
    N16      N        0.03504    0.79178    0.62390    1.000
    N17      N        0.99475    0.78505    0.50290    1.000
    N18      N        0.01902    0.70350    0.58690    1.000
    O9       O        0.21012    0.64831    0.30450    1.000
    O10      O        0.12505    0.65601    0.40770    1.000
    O11      O        0.89450    0.82842    0.19930    1.000
    O12      O        0.80721    0.83915    0.29910    1.000
    C61      C        0.17830    0.32569    0.29350    1.000
    C62      C        0.24910    0.30500    0.39750    1.000
    C63      C        0.23360    0.27619    0.48690    1.000
    H43      H        0.17850    0.26990    0.48380    1.000
    C64      C        0.30030    0.25631    0.58240    1.000
    H44      H        0.28940    0.23610    0.64170    1.000
    C65      C        0.38260    0.26641    0.58930    1.000
    C66      C        0.39690    0.29607    0.49930    1.000
    H45      H        0.45180    0.30410    0.50380    1.000
    C67      C        0.33100    0.31393    0.40300    1.000
    H46      H        0.34190    0.33220    0.34120    1.000
    C68      C        0.45210    0.24541    0.69130    1.000
    H47      H        0.43700    0.22540    0.74730    1.000
    C69      C        0.53320    0.25179    0.71220    1.000
    H48      H        0.54880    0.27280    0.65800    1.000
    C70      C        0.60190    0.22887    0.81310    1.000
    C71      C        0.68530    0.24123    0.82690    1.000
    H49      H        0.69730    0.26440    0.77280    1.000
    C72      C        0.75030    0.21946    0.91990    1.000
    H50      H        0.80560    0.22750    0.92700    1.000
    C73      C        0.58680    0.19443    0.89560    1.000
    H51      H        0.53170    0.18460    0.88670    1.000
    C74      C        0.80360    0.16173    0.10340    1.000
    C75      C        0.73380    0.18586    0.00240    1.000
    C76      C        0.65140    0.17449    0.99070    1.000
    H52      H        0.63940    0.15320    0.04760    1.000
    C77      C        0.05030    0.50570    0.31150    1.000
    H53      H        0.03950    0.52080    0.37660    1.000
    C78      C        0.08020    0.49697    0.15610    1.000
    H54      H        0.09470    0.50490    0.08910    1.000
    C79      C        0.95250    0.24262    0.83150    1.000
    H55      H        0.92640    0.23550    0.75100    1.000
    C80      C        0.01290    0.23242    0.01400    1.000
    H56      H        0.03780    0.21650    0.08830    1.000
    Cd10     Cd       0.05252    0.36313    0.10016    1.000
    Cd11     Cd       0.00662    0.37996    0.36633    1.000
    Cd12     Cd       0.93377    0.37449    0.79091    1.000
    N19      N        0.06555    0.44766    0.18570    1.000
    N20      N        0.04555    0.45300    0.28800    1.000
    N21      N        0.07203    0.53507    0.23250    1.000
    N22      N        0.96496    0.29178    0.87610    1.000
    N23      N        0.00525    0.28505    0.99710    1.000
    N24      N        0.98098    0.20350    0.91310    1.000
    O13      O        0.78988    0.14831    0.19550    1.000
    O14      O        0.87495    0.15601    0.09230    1.000
    O15      O        0.10550    0.32842    0.30070    1.000
    O16      O        0.19279    0.33915    0.20090    1.000
