# CIF file generated by openbabel 3.1.0, see https://openbabel.org
data_I
_chemical_name_common 'image0'
_cell_length_a 9.601
_cell_length_b 9.757
_cell_length_c 10.701
_cell_angle_alpha 74.2
_cell_angle_beta 75.01
_cell_angle_gamma 88.48
_space_group_name_H-M_alt 'P 1'
_space_group_name_Hall 'P 1'
loop_
    _symmetry_equiv_pos_as_xyz
    x,y,z
loop_
    _atom_site_label
    _atom_site_type_symbol
    _atom_site_fract_x
    _atom_site_fract_y
    _atom_site_fract_z
    _atom_site_occupancy
    Ga1      Ga       0.22340    0.78930    0.83320    1.000
    Ga2      Ga       0.47790    0.21710    0.93600    1.000
    Ga3      Ga       0.18120    0.95200    0.34260    1.000
    Ga4      Ga       0.97680    0.49390    0.86580    1.000
    P1       P        0.49820    0.97430    0.78730    1.000
    P2       P        0.28370    0.48150    0.90240    1.000
    P3       P        0.02350    0.79260    0.64210    1.000
    P4       P        0.18160    0.78340    0.13240    1.000
    O1       O        0.17740    0.44600    0.83110    1.000
    O2       O        0.41770    0.39340    0.87750    1.000
    O3       O        0.18600    0.85580    0.98550    1.000
    O4       O        0.43450    0.08350    0.86230    1.000
    O5       O        0.38390    0.92230    0.73640    1.000
    O6       O        0.34290    0.63720    0.83480    1.000
    O7       O        0.98740    0.63470    0.69970    1.000
    O8       O        0.09190    0.81760    0.49190    1.000
    O9       O        0.04280    0.64400    0.94320    1.000
    O10      O        0.22000    0.45960    0.05340    1.000
    O11      O        0.12400    0.85440    0.70440    1.000
    O12      O        0.33040    0.73210    0.14560    1.000
    O13      O        0.14010    0.90210    0.20330    1.000
    O14      O        0.62690    0.04090    0.66870    1.000
    O15      O        0.55600    0.85040    0.88220    1.000
    O16      O        0.07410    0.65870    0.19680    1.000
    O17      O        0.88000    0.87060    0.65980    1.000
    H1       H        0.96590    0.70430    0.97080    1.000
    Ga5      Ga       0.77660    0.21070    0.16680    1.000
    Ga6      Ga       0.52210    0.78290    0.06400    1.000
    Ga7      Ga       0.81880    0.04800    0.65740    1.000
    Ga8      Ga       0.02320    0.50610    0.13420    1.000
    P5       P        0.50180    0.02570    0.21270    1.000
    P6       P        0.71630    0.51850    0.09760    1.000
    P7       P        0.97650    0.20740    0.35790    1.000
    P8       P        0.81840    0.21660    0.86760    1.000
    O18      O        0.82260    0.55400    0.16890    1.000
    O19      O        0.58230    0.60660    0.12250    1.000
    O20      O        0.81400    0.14420    0.01450    1.000
    O21      O        0.56550    0.91650    0.13770    1.000
    O22      O        0.61610    0.07770    0.26360    1.000
    O23      O        0.65710    0.36280    0.16520    1.000
    O24      O        0.01260    0.36530    0.30030    1.000
    O25      O        0.90810    0.18240    0.50810    1.000
    O26      O        0.95720    0.35600    0.05680    1.000
    O27      O        0.78000    0.54040    0.94660    1.000
    O28      O        0.87600    0.14560    0.29560    1.000
    O29      O        0.66960    0.26790    0.85440    1.000
    O30      O        0.85990    0.09790    0.79670    1.000
    O31      O        0.37310    0.95910    0.33130    1.000
    O32      O        0.44400    0.14960    0.11780    1.000
    O33      O        0.92590    0.34130    0.80320    1.000
    O34      O        0.12000    0.12940    0.34020    1.000
    H2       H        0.03410    0.29570    0.02920    1.000
