# CIF file generated by openbabel 3.1.0, see https://openbabel.org
data_I
_chemical_name_common 'image0'
_cell_length_a 12.5599
_cell_length_b 12.7481
_cell_length_c 13.367
_cell_angle_alpha 99.749
_cell_angle_beta 105.537
_cell_angle_gamma 111.878
_space_group_name_H-M_alt 'P 1'
_space_group_name_Hall 'P 1'
loop_
    _symmetry_equiv_pos_as_xyz
    x,y,z
loop_
    _atom_site_label
    _atom_site_type_symbol
    _atom_site_fract_x
    _atom_site_fract_y
    _atom_site_fract_z
    _atom_site_occupancy
    N1       N        0.60880    0.42670    0.56380    1.000
    N2       N        0.35330    0.34510    0.46430    1.000
    C1       C        0.63500    0.41220    0.66180    1.000
    C2       C        0.67360    0.38240    0.51940    1.000
    C3       C        0.69280    0.70710    0.46960    1.000
    C4       C        0.70850    0.74070    0.63290    1.000
    N3       N        0.71400    0.36610    0.67650    1.000
    H1       H        0.60230    0.43160    0.71290    1.000
    N4       N        0.74080    0.34660    0.58550    1.000
    H2       H        0.67100    0.37770    0.44850    1.000
    N5       N        0.77630    0.81640    0.52390    1.000
    H3       H        0.66960    0.67180    0.39550    1.000
    N6       N        0.78620    0.84050    0.62940    1.000
    H4       H        0.69640    0.72940    0.69660    1.000
    N7       N        0.86990    0.02420    0.89350    1.000
    N8       N        0.96770    0.08160    0.12550    1.000
    C5       C        0.77510    0.34580    0.77530    1.000
    C6       C        0.84660    0.90800    0.48380    1.000
    C7       C        0.74950    0.96200    0.86200    1.000
    C8       C        0.88260    0.09580    0.82850    1.000
    C9       C        0.97010    0.18770    0.14860    1.000
    C10      C        0.92860    0.03590    0.19960    1.000
    H5       H        0.80040    0.28440    0.75620    1.000
    H6       H        0.71760    0.31830    0.81180    1.000
    C11      C        0.88650    0.45750    0.85200    1.000
    C12      C        0.79880    0.00120    0.47760    1.000
    H7       H        0.93240    0.94610    0.53180    1.000
    H8       H        0.84220    0.87160    0.41200    1.000
    N9       N        0.69420    0.99400    0.78150    1.000
    H9       H        0.70980    0.90480    0.89130    1.000
    N10      N        0.77840    0.08020    0.75870    1.000
    H10      H        0.95870    0.15110    0.83330    1.000
    N11      N        0.93160    0.20340    0.22980    1.000
    H11      H        0.99550    0.24330    0.11250    1.000
    N12      N        0.90340    0.10570    0.26490    1.000
    H12      H        0.92000    0.96150    0.20450    1.000
    C13      C        0.94600    0.44260    0.96100    1.000
    H13      H        0.86220    0.52080    0.86500    1.000
    H14      H        0.94690    0.48070    0.81750    1.000
    H15      H        0.85010    0.06180    0.45350    1.000
    H16      H        0.80520    0.03880    0.54980    1.000
    C14      C        0.66740    0.95040    0.40150    1.000
    C15      C        0.56280    0.93500    0.70960    1.000
    C16      C        0.91180    0.30370    0.27850    1.000
    H17      H        0.88480    0.41590    0.99420    1.000
    H18      H        0.97430    0.38220    0.94850    1.000
    C17      C        0.62200    0.04060    0.38560    1.000
    H19      H        0.61540    0.89520    0.42960    1.000
    H20      H        0.65970    0.90600    0.33130    1.000
    C18      C        0.51490    0.02030    0.68870    1.000
    H21      H        0.55350    0.88590    0.64100    1.000
    H22      H        0.51520    0.88380    0.74330    1.000
    C19      C        0.98870    0.36430    0.39680    1.000
    H23      H        0.82570    0.27540    0.26980    1.000
    H24      H        0.92970    0.36130    0.23890    1.000
    H25      H        0.63200    0.08760    0.45560    1.000
    H26      H        0.66990    0.09320    0.35300    1.000
    H27      H        0.56240    0.07130    0.65470    1.000
    H28      H        0.52460    0.06970    0.75740    1.000
    C20      C        0.96680    0.47020    0.43970    1.000
    H29      H        0.07510    0.39100    0.40680    1.000
    H30      H        0.96840    0.30870    0.43780    1.000
    H31      H        0.99290    0.52790    0.40170    1.000
    H32      H        0.87920    0.44380    0.42310    1.000
    N13      N        0.39120    0.57330    0.43620    1.000
    N14      N        0.64670    0.65490    0.53570    1.000
    C21      C        0.36500    0.58780    0.33820    1.000
    C22      C        0.32640    0.61760    0.48060    1.000
    C23      C        0.30720    0.29290    0.53040    1.000
    C24      C        0.29150    0.25930    0.36710    1.000
    N15      N        0.28600    0.63390    0.32350    1.000
    H33      H        0.39770    0.56840    0.28710    1.000
    N16      N        0.25920    0.65340    0.41450    1.000
    H34      H        0.32900    0.62230    0.55150    1.000
    N17      N        0.22370    0.18360    0.47610    1.000
    H35      H        0.33040    0.32820    0.60450    1.000
    N18      N        0.21380    0.15950    0.37060    1.000
    H36      H        0.30360    0.27060    0.30340    1.000
    N19      N        0.13010    0.97580    0.10650    1.000
    N20      N        0.03230    0.91840    0.87450    1.000
    C25      C        0.22490    0.65420    0.22470    1.000
    C26      C        0.15340    0.09200    0.51620    1.000
    C27      C        0.25050    0.03800    0.13800    1.000
    C28      C        0.11740    0.90420    0.17150    1.000
    C29      C        0.02990    0.81230    0.85140    1.000
    C30      C        0.07140    0.96410    0.80040    1.000
    H37      H        0.19960    0.71560    0.24380    1.000
    H38      H        0.28240    0.68170    0.18820    1.000
    C31      C        0.11350    0.54250    0.14800    1.000
    C32      C        0.20120    0.99880    0.52240    1.000
    H39      H        0.06760    0.05390    0.46820    1.000
    H40      H        0.15780    0.12840    0.58800    1.000
    N21      N        0.30580    0.00600    0.21850    1.000
    H41      H        0.29020    0.09520    0.10870    1.000
    N22      N        0.22160    0.91980    0.24130    1.000
    H42      H        0.04130    0.84890    0.16670    1.000
    N23      N        0.06840    0.79660    0.77020    1.000
    H43      H        0.00450    0.75670    0.88750    1.000
    N24      N        0.09660    0.89430    0.73510    1.000
    H44      H        0.08000    0.03850    0.79550    1.000
    C33      C        0.05400    0.55740    0.03900    1.000
    H45      H        0.13780    0.47920    0.13500    1.000
    H46      H        0.05310    0.51930    0.18250    1.000
    H47      H        0.14990    0.93820    0.54650    1.000
    H48      H        0.19480    0.96120    0.45020    1.000
    C34      C        0.33260    0.04960    0.59850    1.000
    C35      C        0.43720    0.06500    0.29040    1.000
    C36      C        0.08820    0.69630    0.72150    1.000
    H49      H        0.11520    0.58410    0.00580    1.000
    H50      H        0.02570    0.61780    0.05150    1.000
    C37      C        0.37800    0.95940    0.61440    1.000
    H51      H        0.38460    0.10480    0.57040    1.000
    H52      H        0.34030    0.09400    0.66870    1.000
    C38      C        0.48510    0.97970    0.31130    1.000
    H53      H        0.44650    0.11410    0.35900    1.000
    H54      H        0.48480    0.11620    0.25670    1.000
    C39      C        0.01130    0.63570    0.60320    1.000
    H55      H        0.17430    0.72460    0.73020    1.000
    H56      H        0.07030    0.63870    0.76110    1.000
    H57      H        0.36800    0.91240    0.54440    1.000
    H58      H        0.33010    0.90680    0.64700    1.000
    H59      H        0.43760    0.92870    0.34530    1.000
    H60      H        0.47540    0.93030    0.24260    1.000
    C40      C        0.03320    0.52980    0.56030    1.000
    H61      H        0.92490    0.60900    0.59320    1.000
    H62      H        0.03160    0.69130    0.56220    1.000
    H63      H        0.00710    0.47210    0.59830    1.000
    H64      H        0.12080    0.55620    0.57690    1.000
    Cu1      Cu       0.00000    0.00000    0.00000    1.000
    Cu2      Cu       0.50000    0.50000    0.50000    1.000
