# CIF file generated by openbabel 3.1.0, see https://openbabel.org
data_I
_chemical_name_common 'LEZLAF_clean'
_cell_length_a 11.7271
_cell_length_b 11.7707
_cell_length_c 18.2633
_cell_angle_alpha 90
_cell_angle_beta 98.704
_cell_angle_gamma 90
_space_group_name_H-M_alt 'P 1'
_space_group_name_Hall 'P 1'
loop_
    _symmetry_equiv_pos_as_xyz
    x,y,z
loop_
    _atom_site_label
    _atom_site_type_symbol
    _atom_site_fract_x
    _atom_site_fract_y
    _atom_site_fract_z
    _atom_site_occupancy
    Ag1      Ag       0.35570    0.60152    0.01521    1.000
    Ag2      Ag       0.35991    0.13228    0.50423    1.000
    Ag3      Ag       0.87883    0.60307    0.92201    1.000
    Ag4      Ag       0.64430    0.10152    0.98479    1.000
    Ag5      Ag       0.64009    0.63228    0.49577    1.000
    Ag6      Ag       0.12117    0.10307    0.07799    1.000
    P1       P        0.14456    0.91204    0.11485    1.000
    P2       P        0.59597    0.80869    0.44037    1.000
    P3       P        0.48655    0.71465    0.95908    1.000
    P4       P        0.85544    0.41204    0.88515    1.000
    P5       P        0.40403    0.30869    0.55963    1.000
    P6       P        0.51345    0.21465    0.04092    1.000
    H1       H        0.89980    0.77220    0.76030    1.000
    H2       H        0.12020    0.44940    0.74220    1.000
    H3       H        0.31380    0.85300    0.06800    1.000
    H4       H        0.20190    0.81550    0.01180    1.000
    H5       H        0.16860    0.91240    0.24690    1.000
    H6       H        0.29240    0.91230    0.22010    1.000
    H7       H        0.97780    0.81220    0.05910    1.000
    H8       H        0.96460    0.84560    0.14240    1.000
    H9       H        0.13890    0.56650    0.10290    1.000
    H10      H        0.09210    0.65130    0.03680    1.000
    H11      H        0.37130    0.74740    0.18160    1.000
    H12      H        0.31630    0.62570    0.19310    1.000
    H13      H        0.11770    0.62230    0.23130    1.000
    H14      H        0.05900    0.74220    0.24300    1.000
    H15      H        0.63340    0.07530    0.50850    1.000
    H16      H        0.59220    0.15440    0.43840    1.000
    H17      H        0.77980    0.87450    0.42110    1.000
    H18      H        0.75330    0.91670    0.50010    1.000
    H19      H        0.69250    0.96990    0.30910    1.000
    H20      H        0.62580    0.08740    0.31350    1.000
    H21      H        0.37160    0.96290    0.35690    1.000
    H22      H        0.42630    0.08410    0.34370    1.000
    H23      H        0.51850    0.91350    0.53250    1.000
    H24      H        0.41610    0.86970    0.47120    1.000
    H25      H        0.46160    0.79290    0.32920    1.000
    H26      H        0.59040    0.79170    0.30990    1.000
    H27      H        0.75130    0.83140    0.00230    1.000
    H28      H        0.78120    0.87840    0.92520    1.000
    H29      H        0.62590    0.57630    0.93880    1.000
    H30      H        0.67240    0.64840    0.01160    1.000
    H31      H        0.70540    0.76560    0.81030    1.000
    H32      H        0.63360    0.65280    0.82080    1.000
    H33      H        0.61900    0.94990    0.83240    1.000
    H34      H        0.49190    0.95520    0.85360    1.000
    H35      H        0.56460    0.86170    0.03650    1.000
    H36      H        0.46000    0.90830    0.97790    1.000
    H37      H        0.37390    0.78720    0.85070    1.000
    H38      H        0.42680    0.66640    0.83330    1.000
    H39      H        0.10020    0.27220    0.23970    1.000
    H40      H        0.87980    0.94940    0.25780    1.000
    H41      H        0.68620    0.35300    0.93200    1.000
    H42      H        0.79810    0.31550    0.98820    1.000
    H43      H        0.83140    0.41240    0.75310    1.000
    H44      H        0.70760    0.41230    0.77990    1.000
    H45      H        0.02220    0.31220    0.94090    1.000
    H46      H        0.03540    0.34560    0.85760    1.000
    H47      H        0.86110    0.06650    0.89710    1.000
    H48      H        0.90790    0.15130    0.96320    1.000
    H49      H        0.62870    0.24740    0.81840    1.000
    H50      H        0.68370    0.12570    0.80690    1.000
    H51      H        0.88230    0.12230    0.76870    1.000
    H52      H        0.94100    0.24220    0.75700    1.000
    H53      H        0.36660    0.57530    0.49150    1.000
    H54      H        0.40780    0.65440    0.56160    1.000
    H55      H        0.22020    0.37450    0.57890    1.000
    H56      H        0.24670    0.41670    0.49990    1.000
    H57      H        0.30750    0.46990    0.69090    1.000
    H58      H        0.37420    0.58740    0.68650    1.000
    H59      H        0.62840    0.46290    0.64310    1.000
    H60      H        0.57370    0.58410    0.65630    1.000
    H61      H        0.48150    0.41350    0.46750    1.000
    H62      H        0.58390    0.36970    0.52880    1.000
    H63      H        0.53840    0.29290    0.67080    1.000
    H64      H        0.40960    0.29170    0.69010    1.000
    H65      H        0.24870    0.33140    0.99770    1.000
    H66      H        0.21880    0.37840    0.07480    1.000
    H67      H        0.37410    0.07630    0.06120    1.000
    H68      H        0.32760    0.14840    0.98840    1.000
    H69      H        0.29460    0.26560    0.18970    1.000
    H70      H        0.36640    0.15280    0.17920    1.000
    H71      H        0.38100    0.44990    0.16760    1.000
    H72      H        0.50810    0.45520    0.14640    1.000
    H73      H        0.43540    0.36170    0.96350    1.000
    H74      H        0.54000    0.40830    0.02210    1.000
    H75      H        0.62610    0.28720    0.14930    1.000
    H76      H        0.57320    0.16640    0.16670    1.000
    C1       C        0.09990    0.58220    0.80870    1.000
    C2       C        0.03310    0.67980    0.81370    1.000
    C3       C        0.94350    0.70490    0.75700    1.000
    C4       C        0.91530    0.63330    0.69460    1.000
    C5       C        0.98410    0.53600    0.68850    1.000
    C6       C        0.07380    0.51460    0.74610    1.000
    C7       C        0.19360    0.54940    0.87070    1.000
    C8       C        0.05510    0.76550    0.87790    1.000
    C9       C        0.96770    0.45320    0.62510    1.000
    C10      C        0.81570    0.66060    0.63640    1.000
    C11      C        0.23590    0.81900    0.06480    1.000
    C12      C        0.21430    0.87830    0.21120    1.000
    C13      C        0.01880    0.81520    0.11060    1.000
    C14      C        0.12940    0.64770    0.08910    1.000
    C15      C        0.29800    0.70440    0.17610    1.000
    C16      C        0.10950    0.70140    0.21290    1.000
    C17      C        0.60220    0.07440    0.45500    1.000
    C18      C        0.71970    0.90760    0.44740    1.000
    C19      C        0.63630    0.01020    0.33510    1.000
    C20      C        0.44420    0.00720    0.36420    1.000
    C21      C        0.49350    0.90520    0.47850    1.000
    C22      C        0.53840    0.82910    0.34050    1.000
    C23      C        0.72180    0.83870    0.94880    1.000
    C24      C        0.63290    0.65400    0.95980    1.000
    C25      C        0.65010    0.73090    0.83960    1.000
    C26      C        0.56420    0.91060    0.86000    1.000
    C27      C        0.52980    0.85990    0.98360    1.000
    C28      C        0.44440    0.73980    0.85900    1.000
    C29      C        0.90010    0.08220    0.19130    1.000
    C30      C        0.96690    0.17980    0.18630    1.000
    C31      C        0.05650    0.20490    0.24300    1.000
    C32      C        0.08470    0.13330    0.30540    1.000
    C33      C        0.01590    0.03600    0.31150    1.000
    C34      C        0.92620    0.01460    0.25390    1.000
    C35      C        0.80640    0.04940    0.12930    1.000
    C36      C        0.94490    0.26550    0.12210    1.000
    C37      C        0.03230    0.95320    0.37490    1.000
    C38      C        0.18430    0.16060    0.36360    1.000
    C39      C        0.76410    0.31900    0.93520    1.000
    C40      C        0.78570    0.37830    0.78880    1.000
    C41      C        0.98120    0.31520    0.88940    1.000
    C42      C        0.87060    0.14770    0.91090    1.000
    C43      C        0.70200    0.20440    0.82390    1.000
    C44      C        0.89050    0.20140    0.78710    1.000
    C45      C        0.39780    0.57440    0.54500    1.000
    C46      C        0.28030    0.40760    0.55260    1.000
    C47      C        0.36370    0.51020    0.66490    1.000
    C48      C        0.55580    0.50720    0.63580    1.000
    C49      C        0.50650    0.40520    0.52150    1.000
    C50      C        0.46160    0.32910    0.65950    1.000
    C51      C        0.27820    0.33870    0.05120    1.000
    C52      C        0.36710    0.15400    0.04020    1.000
    C53      C        0.34990    0.23090    0.16040    1.000
    C54      C        0.43580    0.41060    0.14000    1.000
    C55      C        0.47020    0.35990    0.01640    1.000
    C56      C        0.55560    0.23980    0.14100    1.000
    N1       N        0.24680    0.70160    0.09540    1.000
    N2       N        0.22310    0.75560    0.22350    1.000
    N3       N        0.05390    0.70030    0.13510    1.000
    N4       N        0.48480    0.01770    0.44480    1.000
    N5       N        0.68640    0.02100    0.41540    1.000
    N6       N        0.52830    0.95150    0.32110    1.000
    N7       N        0.61290    0.90940    0.93910    1.000
    N8       N        0.70350    0.72460    0.91640    1.000
    N9       N        0.53980    0.79860    0.82780    1.000
    N10      N        0.75320    0.20160    0.90460    1.000
    N11      N        0.77690    0.25560    0.77650    1.000
    N12      N        0.94610    0.20030    0.86490    1.000
    N13      N        0.51520    0.51770    0.55520    1.000
    N14      N        0.31360    0.52100    0.58460    1.000
    N15      N        0.47170    0.45150    0.67890    1.000
    N16      N        0.38710    0.40940    0.06090    1.000
    N17      N        0.29650    0.22460    0.08360    1.000
    N18      N        0.46020    0.29860    0.17220    1.000
    O1       O        0.18530    0.58180    0.93360    1.000
    O2       O        0.27400    0.48400    0.85560    1.000
    O3       O        0.98620    0.76200    0.92420    1.000
    O4       O        0.12890    0.83870    0.87470    1.000
    O5       O        0.02410    0.46910    0.57300    1.000
    O6       O        0.90550    0.36920    0.63110    1.000
    O7       O        0.75470    0.74780    0.64510    1.000
    O8       O        0.79380    0.59460    0.58350    1.000
    O9       O        0.81470    0.08180    0.06640    1.000
    O10      O        0.72600    0.98400    0.14440    1.000
    O11      O        0.01380    0.26200    0.07580    1.000
    O12      O        0.87110    0.33870    0.12530    1.000
    O13      O        0.97590    0.96910    0.42700    1.000
    O14      O        0.09450    0.86920    0.36890    1.000
    O15      O        0.24530    0.24780    0.35490    1.000
    O16      O        0.20620    0.09460    0.41650    1.000
