# CIF file generated by openbabel 3.1.0, see https://openbabel.org
data_I
_chemical_name_common 'image0'
_cell_length_a 18.894
_cell_length_b 31.681
_cell_length_c 13.876
_cell_angle_alpha 90
_cell_angle_beta 90
_cell_angle_gamma 90
_space_group_name_H-M_alt 'P 1'
_space_group_name_Hall 'P 1'
loop_
    _symmetry_equiv_pos_as_xyz
    x,y,z
loop_
    _atom_site_label
    _atom_site_type_symbol
    _atom_site_fract_x
    _atom_site_fract_y
    _atom_site_fract_z
    _atom_site_occupancy
    O1       O        0.18920    0.00820    0.44450    1.000
    Mn1      Mn       0.26214    0.91663    0.47499    1.000
    O2       O        0.22310    0.86010    0.41930    1.000
    O3       O        0.33680    0.86100    0.44630    1.000
    N1       N        0.25530    0.89920    0.62770    1.000
    N2       N        0.32410    0.96030    0.54420    1.000
    N3       N        0.30880    0.95120    0.35950    1.000
    N4       N        0.54500    0.15110    0.84570    1.000
    N5       N        0.57410    0.20020    0.95250    1.000
    C1       C        0.29770    0.94480    0.26520    1.000
    H1       H        0.26930    0.92220    0.24640    1.000
    C2       C        0.32560    0.96190    0.64050    1.000
    O4       O        0.16560    0.94170    0.48610    1.000
    C3       C        0.39570    0.02220    0.53640    1.000
    H2       H        0.42020    0.04200    0.49980    1.000
    C4       C        0.36140    0.99340    0.68850    1.000
    H3       H        0.36210    0.99390    0.75550    1.000
    C5       C        0.34970    0.98440    0.38650    1.000
    C6       C        0.35770    0.98970    0.49150    1.000
    C7       C        0.40630    0.07610    0.77200    1.000
    H4       H        0.36320    0.06610    0.79480    1.000
    C8       C        0.28570    0.92700    0.68800    1.000
    C9       C        0.39620    0.02440    0.63620    1.000
    C10      C        0.28090    0.84120    0.42500    1.000
    C11      C        0.43370    0.05960    0.68710    1.000
    C12      C        0.52300    0.17940    0.91020    1.000
    H5       H        0.47540    0.18400    0.92380    1.000
    C13      C        0.22140    0.77190    0.40410    1.000
    H6       H        0.17890    0.78640    0.39660    1.000
    C14      C        0.21600    0.86780    0.66380    1.000
    H7       H        0.19550    0.84860    0.62160    1.000
    C15      C        0.28310    0.79410    0.41490    1.000
    C16      C        0.44130    0.10690    0.82350    1.000
    H8       H        0.42210    0.11760    0.88020    1.000
    C17      C        0.50550    0.12170    0.78970    1.000
    C18      C        0.49630    0.07690    0.65220    1.000
    H9       H        0.51430    0.06760    0.59350    1.000
    C19      C        0.32680    0.97040    0.19450    1.000
    H10      H        0.31840    0.96530    0.12950    1.000
    C20      C        0.53200    0.10740    0.70300    1.000
    H11      H        0.57410    0.11840    0.67890    1.000
    C21      C        0.36860    0.00350    0.22370    1.000
    H12      H        0.38910    0.02120    0.17800    1.000
    C22      C        0.38030    0.01050    0.32020    1.000
    H13      H        0.40880    0.03280    0.34010    1.000
    C23      C        0.23710    0.89100    0.82260    1.000
    H14      H        0.23190    0.88800    0.88890    1.000
    C24      C        0.27690    0.92350    0.78630    1.000
    H15      H        0.29770    0.94300    0.82760    1.000
    C25      C        0.34620    0.77180    0.42350    1.000
    H16      H        0.38870    0.78640    0.42930    1.000
    C26      C        0.20490    0.86300    0.76150    1.000
    H17      H        0.17650    0.84140    0.78510    1.000
    C27      C        0.63280    0.18330    0.91500    1.000
    H18      H        0.67870    0.19170    0.92940    1.000
    C28      C        0.61580    0.15270    0.85300    1.000
    H19      H        0.64760    0.13540    0.82050    1.000
    C29      C        0.07110    0.99020    0.48530    1.000
    C30      C        0.14860    0.98010    0.46980    1.000
    C31      C        0.04680    0.03070    0.47000    1.000
    H20      H        0.07810    0.05160    0.44980    1.000
    C32      C        0.02350    0.95960    0.51570    1.000
    H21      H        0.03930    0.93220    0.52640    1.000
    O5       O        0.31080    0.99180    0.94450    1.000
    Mn2      Mn       0.23786    0.08337    0.97499    1.000
    O6       O        0.27690    0.13990    0.91930    1.000
    O7       O        0.16320    0.13900    0.94630    1.000
    N6       N        0.24470    0.10080    0.12770    1.000
    N7       N        0.17590    0.03970    0.04420    1.000
    N8       N        0.19120    0.04880    0.85950    1.000
    N9       N        0.95500    0.84890    0.34570    1.000
    N10      N        0.92590    0.79980    0.45250    1.000
    C33      C        0.20230    0.05520    0.76520    1.000
    H22      H        0.23070    0.07780    0.74640    1.000
    C34      C        0.17440    0.03810    0.14050    1.000
    O8       O        0.33440    0.05830    0.98610    1.000
    C35      C        0.10430    0.97780    0.03640    1.000
    H23      H        0.07980    0.95800    0.99980    1.000
    C36      C        0.13860    0.00660    0.18850    1.000
    H24      H        0.13790    0.00610    0.25550    1.000
    C37      C        0.15030    0.01560    0.88650    1.000
    C38      C        0.14230    0.01030    0.99150    1.000
    C39      C        0.09370    0.92390    0.27200    1.000
    H25      H        0.13680    0.93390    0.29480    1.000
    C40      C        0.21430    0.07300    0.18800    1.000
    C41      C        0.10380    0.97560    0.13620    1.000
    C42      C        0.21910    0.15880    0.92500    1.000
    C43      C        0.06630    0.94040    0.18710    1.000
    C44      C        0.97700    0.82060    0.41020    1.000
    H26      H        0.02460    0.81600    0.42380    1.000
    C45      C        0.27860    0.22810    0.90410    1.000
    H27      H        0.32110    0.21360    0.89660    1.000
    C46      C        0.28400    0.13220    0.16380    1.000
    H28      H        0.30450    0.15140    0.12160    1.000
    C47      C        0.21690    0.20590    0.91490    1.000
    C48      C        0.05870    0.89310    0.32350    1.000
    H29      H        0.07790    0.88240    0.38020    1.000
    C49      C        0.99450    0.87830    0.28970    1.000
    C50      C        0.00370    0.92310    0.15220    1.000
    H30      H        0.98570    0.93240    0.09350    1.000
    C51      C        0.17320    0.02960    0.69450    1.000
    H31      H        0.18160    0.03470    0.62950    1.000
    C52      C        0.96800    0.89260    0.20300    1.000
    H32      H        0.92590    0.88160    0.17890    1.000
    C53      C        0.13140    0.99650    0.72370    1.000
    H33      H        0.11090    0.97880    0.67800    1.000
    C54      C        0.11970    0.98950    0.82020    1.000
    H34      H        0.09120    0.96720    0.84010    1.000
    C55      C        0.26290    0.10900    0.32260    1.000
    H35      H        0.26810    0.11200    0.38890    1.000
    C56      C        0.22310    0.07650    0.28630    1.000
    H36      H        0.20230    0.05700    0.32760    1.000
    C57      C        0.15380    0.22820    0.92350    1.000
    H37      H        0.11130    0.21360    0.92930    1.000
    C58      C        0.29510    0.13700    0.26150    1.000
    H38      H        0.32350    0.15860    0.28510    1.000
    C59      C        0.86720    0.81670    0.41500    1.000
    H39      H        0.82130    0.80830    0.42940    1.000
    C60      C        0.88420    0.84730    0.35300    1.000
    H40      H        0.85240    0.86460    0.32050    1.000
    C61      C        0.42890    0.00980    0.98530    1.000
    C62      C        0.35140    0.01990    0.96980    1.000
    C63      C        0.45320    0.96930    0.97000    1.000
    H41      H        0.42190    0.94840    0.94980    1.000
    C64      C        0.47650    0.04040    0.01570    1.000
    H42      H        0.46070    0.06780    0.02640    1.000
    O9       O        0.81080    0.50820    0.55550    1.000
    Mn3      Mn       0.73786    0.41663    0.52501    1.000
    O10      O        0.77690    0.36010    0.58070    1.000
    O11      O        0.66320    0.36100    0.55370    1.000
    N11      N        0.74470    0.39920    0.37230    1.000
    N12      N        0.67590    0.46030    0.45580    1.000
    N13      N        0.69120    0.45120    0.64050    1.000
    N14      N        0.45500    0.65110    0.15430    1.000
    N15      N        0.42590    0.70020    0.04750    1.000
    C65      C        0.70230    0.44480    0.73480    1.000
    H43      H        0.73070    0.42220    0.75360    1.000
    C66      C        0.67440    0.46190    0.35950    1.000
    O12      O        0.83440    0.44170    0.51390    1.000
    C67      C        0.60430    0.52220    0.46360    1.000
    H44      H        0.57980    0.54200    0.50020    1.000
    C68      C        0.63860    0.49340    0.31150    1.000
    H45      H        0.63790    0.49390    0.24450    1.000
    C69      C        0.65030    0.48440    0.61350    1.000
    C70      C        0.64230    0.48970    0.50850    1.000
    C71      C        0.59370    0.57610    0.22800    1.000
    H46      H        0.63680    0.56610    0.20520    1.000
    C72      C        0.71430    0.42700    0.31200    1.000
    C73      C        0.60380    0.52440    0.36380    1.000
    C74      C        0.71910    0.34120    0.57500    1.000
    C75      C        0.56630    0.55960    0.31290    1.000
    C76      C        0.47700    0.67940    0.08980    1.000
    H47      H        0.52460    0.68400    0.07620    1.000
    C77      C        0.77860    0.27190    0.59590    1.000
    H48      H        0.82110    0.28640    0.60340    1.000
    C78      C        0.78400    0.36780    0.33620    1.000
    H49      H        0.80450    0.34860    0.37840    1.000
    C79      C        0.71690    0.29410    0.58510    1.000
    C80      C        0.55870    0.60690    0.17650    1.000
    H50      H        0.57790    0.61760    0.11980    1.000
    C81      C        0.49450    0.62170    0.21030    1.000
    C82      C        0.50370    0.57690    0.34780    1.000
    H51      H        0.48570    0.56760    0.40650    1.000
    C83      C        0.67320    0.47040    0.80550    1.000
    H52      H        0.68160    0.46530    0.87050    1.000
    C84      C        0.46800    0.60740    0.29700    1.000
    H53      H        0.42590    0.61840    0.32110    1.000
    C85      C        0.63140    0.50350    0.77630    1.000
    H54      H        0.61090    0.52120    0.82200    1.000
    C86      C        0.61970    0.51050    0.67980    1.000
    H55      H        0.59120    0.53280    0.65990    1.000
    C87      C        0.76290    0.39100    0.17740    1.000
    H56      H        0.76810    0.38800    0.11110    1.000
    C88      C        0.72310    0.42350    0.21370    1.000
    H57      H        0.70230    0.44300    0.17240    1.000
    C89      C        0.65380    0.27180    0.57650    1.000
    H58      H        0.61130    0.28640    0.57070    1.000
    C90      C        0.79510    0.36300    0.23850    1.000
    H59      H        0.82350    0.34140    0.21490    1.000
    C91      C        0.36720    0.68330    0.08500    1.000
    H60      H        0.32130    0.69170    0.07060    1.000
    C92      C        0.38420    0.65270    0.14700    1.000
    H61      H        0.35240    0.63540    0.17950    1.000
    C93      C        0.92890    0.49020    0.51470    1.000
    C94      C        0.85140    0.48010    0.53020    1.000
    C95      C        0.95320    0.53070    0.53000    1.000
    H62      H        0.92190    0.55160    0.55020    1.000
    C96      C        0.97650    0.45960    0.48430    1.000
    H63      H        0.96070    0.43220    0.47360    1.000
    O13      O        0.68920    0.49180    0.05550    1.000
    Mn4      Mn       0.76214    0.58337    0.02501    1.000
    O14      O        0.72310    0.63990    0.08070    1.000
    O15      O        0.83680    0.63900    0.05370    1.000
    N16      N        0.75530    0.60080    0.87230    1.000
    N17      N        0.82410    0.53970    0.95580    1.000
    N18      N        0.80880    0.54880    0.14050    1.000
    N19      N        0.04500    0.34890    0.65430    1.000
    N20      N        0.07410    0.29980    0.54750    1.000
    C97      C        0.79770    0.55520    0.23480    1.000
    H64      H        0.76930    0.57780    0.25360    1.000
    C98      C        0.82560    0.53810    0.85950    1.000
    O16      O        0.66560    0.55830    0.01390    1.000
    C99      C        0.89570    0.47780    0.96360    1.000
    H65      H        0.92020    0.45800    0.00020    1.000
    C100     C        0.86140    0.50660    0.81150    1.000
    H66      H        0.86210    0.50610    0.74450    1.000
    C101     C        0.84970    0.51560    0.11350    1.000
    C102     C        0.85770    0.51030    0.00850    1.000
    C103     C        0.90630    0.42390    0.72800    1.000
    H67      H        0.86320    0.43390    0.70520    1.000
    C104     C        0.78570    0.57300    0.81200    1.000
    C105     C        0.89620    0.47560    0.86380    1.000
    C106     C        0.78090    0.65880    0.07500    1.000
    C107     C        0.93370    0.44040    0.81290    1.000
    C108     C        0.02300    0.32060    0.58980    1.000
    H68      H        0.97540    0.31600    0.57620    1.000
    C109     C        0.72140    0.72810    0.09590    1.000
    H69      H        0.67890    0.71360    0.10340    1.000
    C110     C        0.71600    0.63220    0.83620    1.000
    H70      H        0.69550    0.65140    0.87840    1.000
    C111     C        0.78310    0.70590    0.08510    1.000
    C112     C        0.94130    0.39310    0.67650    1.000
    H71      H        0.92210    0.38240    0.61980    1.000
    C113     C        0.00550    0.37830    0.71030    1.000
    C114     C        0.99630    0.42310    0.84780    1.000
    H72      H        0.01430    0.43240    0.90650    1.000
    C115     C        0.82680    0.52960    0.30550    1.000
    H73      H        0.81840    0.53470    0.37050    1.000
    C116     C        0.03200    0.39260    0.79700    1.000
    H74      H        0.07410    0.38160    0.82110    1.000
    C117     C        0.86860    0.49650    0.27630    1.000
    H75      H        0.88910    0.47880    0.32200    1.000
    C118     C        0.88030    0.48950    0.17980    1.000
    H76      H        0.90880    0.46720    0.15990    1.000
    C119     C        0.73710    0.60900    0.67740    1.000
    H77      H        0.73190    0.61200    0.61110    1.000
    C120     C        0.77690    0.57650    0.71370    1.000
    H78      H        0.79770    0.55700    0.67240    1.000
    C121     C        0.84620    0.72820    0.07650    1.000
    H79      H        0.88870    0.71360    0.07070    1.000
    C122     C        0.70490    0.63700    0.73850    1.000
    H80      H        0.67650    0.65860    0.71490    1.000
    C123     C        0.13280    0.31670    0.58500    1.000
    H81      H        0.17870    0.30830    0.57060    1.000
    C124     C        0.11580    0.34730    0.64700    1.000
    H82      H        0.14760    0.36460    0.67950    1.000
    C125     C        0.57110    0.50980    0.01470    1.000
    C126     C        0.64860    0.51990    0.03020    1.000
    C127     C        0.54680    0.46930    0.03000    1.000
    H83      H        0.57810    0.44840    0.05020    1.000
    C128     C        0.52350    0.54040    0.98430    1.000
    H84      H        0.53930    0.56780    0.97360    1.000
    O17      O        0.81080    0.99180    0.55550    1.000
    Mn5      Mn       0.73786    0.08337    0.52501    1.000
    O18      O        0.77690    0.13990    0.58070    1.000
    O19      O        0.66320    0.13900    0.55370    1.000
    N21      N        0.74470    0.10080    0.37230    1.000
    N22      N        0.67590    0.03970    0.45580    1.000
    N23      N        0.69120    0.04880    0.64050    1.000
    N24      N        0.45500    0.84890    0.15430    1.000
    N25      N        0.42590    0.79980    0.04750    1.000
    C129     C        0.70230    0.05520    0.73480    1.000
    H85      H        0.73070    0.07780    0.75360    1.000
    C130     C        0.67440    0.03810    0.35950    1.000
    O20      O        0.83440    0.05830    0.51390    1.000
    C131     C        0.60430    0.97780    0.46360    1.000
    H86      H        0.57980    0.95800    0.50020    1.000
    C132     C        0.63860    0.00660    0.31150    1.000
    H87      H        0.63790    0.00610    0.24450    1.000
    C133     C        0.65030    0.01560    0.61350    1.000
    C134     C        0.64230    0.01030    0.50850    1.000
    C135     C        0.59370    0.92390    0.22800    1.000
    H88      H        0.63680    0.93390    0.20520    1.000
    C136     C        0.71430    0.07300    0.31200    1.000
    C137     C        0.60380    0.97560    0.36380    1.000
    C138     C        0.71910    0.15880    0.57500    1.000
    C139     C        0.56630    0.94040    0.31290    1.000
    C140     C        0.47700    0.82060    0.08980    1.000
    H89      H        0.52460    0.81600    0.07620    1.000
    C141     C        0.77860    0.22810    0.59590    1.000
    H90      H        0.82110    0.21360    0.60340    1.000
    C142     C        0.78400    0.13220    0.33620    1.000
    H91      H        0.80450    0.15140    0.37840    1.000
    C143     C        0.71690    0.20590    0.58510    1.000
    C144     C        0.55870    0.89310    0.17650    1.000
    H92      H        0.57790    0.88240    0.11980    1.000
    C145     C        0.49450    0.87830    0.21030    1.000
    C146     C        0.50370    0.92310    0.34780    1.000
    H93      H        0.48570    0.93240    0.40650    1.000
    C147     C        0.67320    0.02960    0.80550    1.000
    H94      H        0.68160    0.03470    0.87050    1.000
    C148     C        0.46800    0.89260    0.29700    1.000
    H95      H        0.42590    0.88160    0.32110    1.000
    C149     C        0.63140    0.99650    0.77630    1.000
    H96      H        0.61090    0.97880    0.82200    1.000
    C150     C        0.61970    0.98950    0.67980    1.000
    H97      H        0.59120    0.96720    0.65990    1.000
    C151     C        0.76290    0.10900    0.17740    1.000
    H98      H        0.76810    0.11200    0.11110    1.000
    C152     C        0.72310    0.07650    0.21370    1.000
    H99      H        0.70230    0.05700    0.17240    1.000
    C153     C        0.65380    0.22820    0.57650    1.000
    H100     H        0.61130    0.21360    0.57070    1.000
    C154     C        0.79510    0.13700    0.23850    1.000
    H101     H        0.82350    0.15860    0.21490    1.000
    C155     C        0.36720    0.81670    0.08500    1.000
    H102     H        0.32130    0.80830    0.07060    1.000
    C156     C        0.38420    0.84730    0.14700    1.000
    H103     H        0.35240    0.86460    0.17950    1.000
    C157     C        0.92890    0.00980    0.51470    1.000
    C158     C        0.85140    0.01990    0.53020    1.000
    C159     C        0.95320    0.96930    0.53000    1.000
    H104     H        0.92190    0.94840    0.55020    1.000
    C160     C        0.97650    0.04040    0.48430    1.000
    H105     H        0.96070    0.06780    0.47360    1.000
    O21      O        0.68920    0.00820    0.05550    1.000
    Mn6      Mn       0.76214    0.91663    0.02501    1.000
    O22      O        0.72310    0.86010    0.08070    1.000
    O23      O        0.83680    0.86100    0.05370    1.000
    N26      N        0.75530    0.89920    0.87230    1.000
    N27      N        0.82410    0.96030    0.95580    1.000
    N28      N        0.80880    0.95120    0.14050    1.000
    N29      N        0.04500    0.15110    0.65430    1.000
    N30      N        0.07410    0.20020    0.54750    1.000
    C161     C        0.79770    0.94480    0.23480    1.000
    H106     H        0.76930    0.92220    0.25360    1.000
    C162     C        0.82560    0.96190    0.85950    1.000
    O24      O        0.66560    0.94170    0.01390    1.000
    C163     C        0.89570    0.02220    0.96360    1.000
    H107     H        0.92020    0.04200    0.00020    1.000
    C164     C        0.86140    0.99340    0.81150    1.000
    H108     H        0.86210    0.99390    0.74450    1.000
    C165     C        0.84970    0.98440    0.11350    1.000
    C166     C        0.85770    0.98970    0.00850    1.000
    C167     C        0.90630    0.07610    0.72800    1.000
    H109     H        0.86320    0.06610    0.70520    1.000
    C168     C        0.78570    0.92700    0.81200    1.000
    C169     C        0.89620    0.02440    0.86380    1.000
    C170     C        0.78090    0.84120    0.07500    1.000
    C171     C        0.93370    0.05960    0.81290    1.000
    C172     C        0.02300    0.17940    0.58980    1.000
    H110     H        0.97540    0.18400    0.57620    1.000
    C173     C        0.72140    0.77190    0.09590    1.000
    H111     H        0.67890    0.78640    0.10340    1.000
    C174     C        0.71600    0.86780    0.83620    1.000
    H112     H        0.69550    0.84860    0.87840    1.000
    C175     C        0.78310    0.79410    0.08510    1.000
    C176     C        0.94130    0.10690    0.67650    1.000
    H113     H        0.92210    0.11760    0.61980    1.000
    C177     C        0.00550    0.12170    0.71030    1.000
    C178     C        0.99630    0.07690    0.84780    1.000
    H114     H        0.01430    0.06760    0.90650    1.000
    C179     C        0.82680    0.97040    0.30550    1.000
    H115     H        0.81840    0.96530    0.37050    1.000
    C180     C        0.03200    0.10740    0.79700    1.000
    H116     H        0.07410    0.11840    0.82110    1.000
    C181     C        0.86860    0.00350    0.27630    1.000
    H117     H        0.88910    0.02120    0.32200    1.000
    C182     C        0.88030    0.01050    0.17980    1.000
    H118     H        0.90880    0.03280    0.15990    1.000
    C183     C        0.73710    0.89100    0.67740    1.000
    H119     H        0.73190    0.88800    0.61110    1.000
    C184     C        0.77690    0.92350    0.71370    1.000
    H120     H        0.79770    0.94300    0.67240    1.000
    C185     C        0.84620    0.77180    0.07650    1.000
    H121     H        0.88870    0.78640    0.07070    1.000
    C186     C        0.70490    0.86300    0.73850    1.000
    H122     H        0.67650    0.84140    0.71490    1.000
    C187     C        0.13280    0.18330    0.58500    1.000
    H123     H        0.17870    0.19170    0.57060    1.000
    C188     C        0.11580    0.15270    0.64700    1.000
    H124     H        0.14760    0.13540    0.67950    1.000
    C189     C        0.57110    0.99020    0.01470    1.000
    C190     C        0.64860    0.98010    0.03020    1.000
    C191     C        0.54680    0.03070    0.03000    1.000
    H125     H        0.57810    0.05160    0.05020    1.000
    C192     C        0.52350    0.95960    0.98430    1.000
    H126     H        0.53930    0.93220    0.97360    1.000
    O25      O        0.18920    0.49180    0.44450    1.000
    Mn7      Mn       0.26214    0.58337    0.47499    1.000
    O26      O        0.22310    0.63990    0.41930    1.000
    O27      O        0.33680    0.63900    0.44630    1.000
    N31      N        0.25530    0.60080    0.62770    1.000
    N32      N        0.32410    0.53970    0.54420    1.000
    N33      N        0.30880    0.54880    0.35950    1.000
    N34      N        0.54500    0.34890    0.84570    1.000
    N35      N        0.57410    0.29980    0.95250    1.000
    C193     C        0.29770    0.55520    0.26520    1.000
    H127     H        0.26930    0.57780    0.24640    1.000
    C194     C        0.32560    0.53810    0.64050    1.000
    O28      O        0.16560    0.55830    0.48610    1.000
    C195     C        0.39570    0.47780    0.53640    1.000
    H128     H        0.42020    0.45800    0.49980    1.000
    C196     C        0.36140    0.50660    0.68850    1.000
    H129     H        0.36210    0.50610    0.75550    1.000
    C197     C        0.34970    0.51560    0.38650    1.000
    C198     C        0.35770    0.51030    0.49150    1.000
    C199     C        0.40630    0.42390    0.77200    1.000
    H130     H        0.36320    0.43390    0.79480    1.000
    C200     C        0.28570    0.57300    0.68800    1.000
    C201     C        0.39620    0.47560    0.63620    1.000
    C202     C        0.28090    0.65880    0.42500    1.000
    C203     C        0.43370    0.44040    0.68710    1.000
    C204     C        0.52300    0.32060    0.91020    1.000
    H131     H        0.47540    0.31600    0.92380    1.000
    C205     C        0.22140    0.72810    0.40410    1.000
    H132     H        0.17890    0.71360    0.39660    1.000
    C206     C        0.21600    0.63220    0.66380    1.000
    H133     H        0.19550    0.65140    0.62160    1.000
    C207     C        0.28310    0.70590    0.41490    1.000
    C208     C        0.44130    0.39310    0.82350    1.000
    H134     H        0.42210    0.38240    0.88020    1.000
    C209     C        0.50550    0.37830    0.78970    1.000
    C210     C        0.49630    0.42310    0.65220    1.000
    H135     H        0.51430    0.43240    0.59350    1.000
    C211     C        0.32680    0.52960    0.19450    1.000
    H136     H        0.31840    0.53470    0.12950    1.000
    C212     C        0.53200    0.39260    0.70300    1.000
    H137     H        0.57410    0.38160    0.67890    1.000
    C213     C        0.36860    0.49650    0.22370    1.000
    H138     H        0.38910    0.47880    0.17800    1.000
    C214     C        0.38030    0.48950    0.32020    1.000
    H139     H        0.40880    0.46720    0.34010    1.000
    C215     C        0.23710    0.60900    0.82260    1.000
    H140     H        0.23190    0.61200    0.88890    1.000
    C216     C        0.27690    0.57650    0.78630    1.000
    H141     H        0.29770    0.55700    0.82760    1.000
    C217     C        0.34620    0.72820    0.42350    1.000
    H142     H        0.38870    0.71360    0.42930    1.000
    C218     C        0.20490    0.63700    0.76150    1.000
    H143     H        0.17650    0.65860    0.78510    1.000
    C219     C        0.63280    0.31670    0.91500    1.000
    H144     H        0.67870    0.30830    0.92940    1.000
    C220     C        0.61580    0.34730    0.85300    1.000
    H145     H        0.64760    0.36460    0.82050    1.000
    C221     C        0.07110    0.50980    0.48530    1.000
    C222     C        0.14860    0.51990    0.46980    1.000
    C223     C        0.04680    0.46930    0.47000    1.000
    H146     H        0.07810    0.44840    0.44980    1.000
    C224     C        0.02350    0.54040    0.51570    1.000
    H147     H        0.03930    0.56780    0.52640    1.000
    O29      O        0.31080    0.50820    0.94450    1.000
    Mn8      Mn       0.23786    0.41663    0.97499    1.000
    O30      O        0.27690    0.36010    0.91930    1.000
    O31      O        0.16320    0.36100    0.94630    1.000
    N36      N        0.24470    0.39920    0.12770    1.000
    N37      N        0.17590    0.46030    0.04420    1.000
    N38      N        0.19120    0.45120    0.85950    1.000
    N39      N        0.95500    0.65110    0.34570    1.000
    N40      N        0.92590    0.70020    0.45250    1.000
    C225     C        0.20230    0.44480    0.76520    1.000
    H148     H        0.23070    0.42220    0.74640    1.000
    C226     C        0.17440    0.46190    0.14050    1.000
    O32      O        0.33440    0.44170    0.98610    1.000
    C227     C        0.10430    0.52220    0.03640    1.000
    H149     H        0.07980    0.54200    0.99980    1.000
    C228     C        0.13860    0.49340    0.18850    1.000
    H150     H        0.13790    0.49390    0.25550    1.000
    C229     C        0.15030    0.48440    0.88650    1.000
    C230     C        0.14230    0.48970    0.99150    1.000
    C231     C        0.09370    0.57610    0.27200    1.000
    H151     H        0.13680    0.56610    0.29480    1.000
    C232     C        0.21430    0.42700    0.18800    1.000
    C233     C        0.10380    0.52440    0.13620    1.000
    C234     C        0.21910    0.34120    0.92500    1.000
    C235     C        0.06630    0.55960    0.18710    1.000
    C236     C        0.97700    0.67940    0.41020    1.000
    H152     H        0.02460    0.68400    0.42380    1.000
    C237     C        0.27860    0.27190    0.90410    1.000
    H153     H        0.32110    0.28640    0.89660    1.000
    C238     C        0.28400    0.36780    0.16380    1.000
    H154     H        0.30450    0.34860    0.12160    1.000
    C239     C        0.21690    0.29410    0.91490    1.000
    C240     C        0.05870    0.60690    0.32350    1.000
    H155     H        0.07790    0.61760    0.38020    1.000
    C241     C        0.99450    0.62170    0.28970    1.000
    C242     C        0.00370    0.57690    0.15220    1.000
    H156     H        0.98570    0.56760    0.09350    1.000
    C243     C        0.17320    0.47040    0.69450    1.000
    H157     H        0.18160    0.46530    0.62950    1.000
    C244     C        0.96800    0.60740    0.20300    1.000
    H158     H        0.92590    0.61840    0.17890    1.000
    C245     C        0.13140    0.50350    0.72370    1.000
    H159     H        0.11090    0.52120    0.67800    1.000
    C246     C        0.11970    0.51050    0.82020    1.000
    H160     H        0.09120    0.53280    0.84010    1.000
    C247     C        0.26290    0.39100    0.32260    1.000
    H161     H        0.26810    0.38800    0.38890    1.000
    C248     C        0.22310    0.42350    0.28630    1.000
    H162     H        0.20230    0.44300    0.32760    1.000
    C249     C        0.15380    0.27180    0.92350    1.000
    H163     H        0.11130    0.28640    0.92930    1.000
    C250     C        0.29510    0.36300    0.26150    1.000
    H164     H        0.32350    0.34140    0.28510    1.000
    C251     C        0.86720    0.68330    0.41500    1.000
    H165     H        0.82130    0.69170    0.42940    1.000
    C252     C        0.88420    0.65270    0.35300    1.000
    H166     H        0.85240    0.63540    0.32050    1.000
    C253     C        0.42890    0.49020    0.98530    1.000
    C254     C        0.35140    0.48010    0.96980    1.000
    C255     C        0.45320    0.53070    0.97000    1.000
    H167     H        0.42190    0.55160    0.94980    1.000
    C256     C        0.47650    0.45960    0.01570    1.000
    H168     H        0.46070    0.43220    0.02640    1.000
    O33      O        0.00550    0.25000    0.35310    1.000
    C257     C        0.94200    0.25000    0.38300    1.000
    C258     C        0.88410    0.25000    0.30910    1.000
    C259     C        0.90070    0.25000    0.21170    1.000
    H169     H        0.94770    0.25000    0.19200    1.000
    Mn9      Mn       0.57368    0.25000    0.04210    1.000
    O34      O        0.92810    0.25000    0.46980    1.000
    O35      O        0.65550    0.25000    0.12760    1.000
    O36      O        0.73520    0.25000    0.01030    1.000
    C260     C        0.77550    0.25000    0.17190    1.000
    C261     C        0.75940    0.25000    0.26850    1.000
    H170     H        0.71230    0.25000    0.28810    1.000
    C262     C        0.71910    0.25000    0.09800    1.000
    C263     C        0.81340    0.25000    0.33780    1.000
    H171     H        0.80200    0.25000    0.40300    1.000
    C264     C        0.84680    0.25000    0.14340    1.000
    H172     H        0.85810    0.25000    0.07820    1.000
    O37      O        0.49450    0.75000    0.85310    1.000
    C265     C        0.55800    0.75000    0.88300    1.000
    C266     C        0.61590    0.75000    0.80910    1.000
    C267     C        0.59930    0.75000    0.71170    1.000
    H173     H        0.55230    0.75000    0.69200    1.000
    Mn10     Mn       0.92632    0.75000    0.54210    1.000
    O38      O        0.57190    0.75000    0.96980    1.000
    O39      O        0.84450    0.75000    0.62760    1.000
    O40      O        0.76480    0.75000    0.51030    1.000
    C268     C        0.72450    0.75000    0.67190    1.000
    C269     C        0.74060    0.75000    0.76850    1.000
    H174     H        0.78770    0.75000    0.78810    1.000
    C270     C        0.78090    0.75000    0.59800    1.000
    C271     C        0.68660    0.75000    0.83780    1.000
    H175     H        0.69800    0.75000    0.90300    1.000
    C272     C        0.65320    0.75000    0.64340    1.000
    H176     H        0.64190    0.75000    0.57820    1.000
    O41      O        0.99450    0.75000    0.64690    1.000
    C273     C        0.05800    0.75000    0.61700    1.000
    C274     C        0.11590    0.75000    0.69090    1.000
    C275     C        0.09930    0.75000    0.78830    1.000
    H177     H        0.05230    0.75000    0.80800    1.000
    Mn11     Mn       0.42632    0.75000    0.95790    1.000
    O42      O        0.07190    0.75000    0.53020    1.000
    O43      O        0.34450    0.75000    0.87240    1.000
    O44      O        0.26480    0.75000    0.98970    1.000
    C276     C        0.22450    0.75000    0.82810    1.000
    C277     C        0.24060    0.75000    0.73150    1.000
    H178     H        0.28770    0.75000    0.71190    1.000
    C278     C        0.28090    0.75000    0.90200    1.000
    C279     C        0.18660    0.75000    0.66220    1.000
    H179     H        0.19800    0.75000    0.59700    1.000
    C280     C        0.15320    0.75000    0.85660    1.000
    H180     H        0.14190    0.75000    0.92180    1.000
    O45      O        0.50550    0.25000    0.14690    1.000
    C281     C        0.44200    0.25000    0.11700    1.000
    C282     C        0.38410    0.25000    0.19090    1.000
    C283     C        0.40070    0.25000    0.28830    1.000
    H181     H        0.44770    0.25000    0.30800    1.000
    Mn12     Mn       0.07368    0.25000    0.45790    1.000
    O46      O        0.42810    0.25000    0.03020    1.000
    O47      O        0.15550    0.25000    0.37240    1.000
    O48      O        0.23520    0.25000    0.48970    1.000
    C284     C        0.27550    0.25000    0.32810    1.000
    C285     C        0.25940    0.25000    0.23150    1.000
    H182     H        0.21230    0.25000    0.21190    1.000
    C286     C        0.21910    0.25000    0.40200    1.000
    C287     C        0.31340    0.25000    0.16220    1.000
    H183     H        0.30200    0.25000    0.09700    1.000
    C288     C        0.34680    0.25000    0.35660    1.000
    H184     H        0.35810    0.25000    0.42180    1.000
