# CIF file generated by openbabel 3.1.0, see https://openbabel.org
data_I
_chemical_name_common 'image0'
_cell_length_a 18.5945
_cell_length_b 8.08
_cell_length_c 30.2904
_cell_angle_alpha 90
_cell_angle_beta 90.819
_cell_angle_gamma 90
_space_group_name_H-M_alt 'P 1'
_space_group_name_Hall 'P 1'
loop_
    _symmetry_equiv_pos_as_xyz
    x,y,z
loop_
    _atom_site_label
    _atom_site_type_symbol
    _atom_site_fract_x
    _atom_site_fract_y
    _atom_site_fract_z
    _atom_site_occupancy
    Zn1      Zn       0.86381    0.03114    0.55825    1.000
    O1       O        0.75790    0.59920    0.54400    1.000
    C1       C        0.96650    0.80970    0.77330    1.000
    Zn2      Zn       0.80317    0.38567    0.52373    1.000
    O2       O        0.85800    0.17640    0.50170    1.000
    B1       B        0.95550    0.83300    0.83000    1.000
    H1       H        0.91030    0.77900    0.84930    1.000
    Zn3      Zn       0.66786    0.63735    0.51592    1.000
    B2       B        0.94080    0.00820    0.79380    1.000
    H2       H        0.88680    0.06780    0.78930    1.000
    Zn4      Zn       0.94865    0.22368    0.47341    1.000
    B3       B        0.00160    0.98790    0.74930    1.000
    H3       H        0.98560    0.03230    0.71550    1.000
    B4       B        0.05340    0.80860    0.75720    1.000
    H4       H        0.07320    0.73730    0.72810    1.000
    B5       B        0.02590    0.70840    0.80610    1.000
    H5       H        0.02680    0.57060    0.81010    1.000
    B6       B        0.99330    0.02620    0.84410    1.000
    H6       H        0.97340    0.09820    0.87310    1.000
    B7       B        0.02480    0.12490    0.79330    1.000
    H7       H        0.02620    0.26240    0.78880    1.000
    B8       B        0.08860    0.00600    0.77140    1.000
    H8       H        0.13200    0.06670    0.75190    1.000
    B9       B        0.10730    0.82430    0.80600    1.000
    H9       H        0.16150    0.76480    0.80960    1.000
    C2       C        0.04380    0.84450    0.84840    1.000
    B10      B        0.08690    0.02320    0.83000    1.000
    H10      H        0.12830    0.09150    0.85010    1.000
    C3       C        0.90600    0.71200    0.75030    1.000
    H11      H        0.86130    0.71940    0.76820    1.000
    O3       O        0.92870    0.54200    0.74780    1.000
    H12      H        0.89340    0.47920    0.74270    1.000
    C4       C        0.89070    0.77560    0.70510    1.000
    C5       C        0.84470    0.90100    0.69670    1.000
    H13      H        0.81880    0.95000    0.72020    1.000
    C6       C        0.83470    0.96030    0.65240    1.000
    H14      H        0.79730    0.03820    0.64710    1.000
    N1       N        0.87280    0.91530    0.61900    1.000
    C7       C        0.92150    0.79700    0.62610    1.000
    H15      H        0.94960    0.76150    0.60200    1.000
    C8       C        0.93350    0.72220    0.66710    1.000
    H16      H        0.96880    0.63800    0.67050    1.000
    C9       C        0.06400    0.76840    0.89500    1.000
    H17      H        0.10380    0.68640    0.89140    1.000
    O4       O        0.00180    0.68550    0.90810    1.000
    H18      H        0.00760    0.64960    0.93390    1.000
    C10      C        0.08730    0.89870    0.92720    1.000
    C11      C        0.04260    0.97830    0.95570    1.000
    H19      H        0.99340    0.94790    0.95740    1.000
    C12      C        0.06970    0.10140    0.98160    1.000
    H20      H        0.03680    0.16250    0.99890    1.000
    N2       N        0.13980    0.14320    0.98440    1.000
    C13      C        0.18180    0.05820    0.95700    1.000
    H21      H        0.23120    0.08840    0.95660    1.000
    C14      C        0.16210    0.93960    0.93110    1.000
    H22      H        0.19680    0.87990    0.91470    1.000
    O5       O        0.75540    0.02470    0.56480    1.000
    C15      C        0.70610    0.13470    0.55720    1.000
    O6       O        0.71200    0.26510    0.53770    1.000
    C16      C        0.63360    0.09510    0.57730    1.000
    C17      C        0.62520    0.97820    0.61030    1.000
    H23      H        0.66470    0.91160    0.61960    1.000
    C18      C        0.56340    0.96050    0.62830    1.000
    H24      H        0.55980    0.88420    0.65210    1.000
    C19      C        0.50410    0.04160    0.61600    1.000
    C20      C        0.50760    0.15190    0.58090    1.000
    H25      H        0.46560    0.20510    0.56980    1.000
    C21      C        0.57540    0.18250    0.56240    1.000
    H26      H        0.58040    0.26290    0.53970    1.000
    C22      C        0.43480    0.01400    0.64280    1.000
    C23      C        0.43480    0.00380    0.68440    1.000
    H27      H        0.47970    0.99970    0.69970    1.000
    C24      C        0.36820    0.99780    0.71060    1.000
    C25      C        0.30730    0.00760    0.68710    1.000
    H28      H        0.26390    0.99580    0.70300    1.000
    C26      C        0.30030    0.03350    0.64170    1.000
    C27      C        0.36620    0.03690    0.61640    1.000
    H29      H        0.36600    0.05250    0.58540    1.000
    C28      C        0.37510    0.98380    0.75910    1.000
    C29      C        0.43070    0.89580    0.77840    1.000
    H30      H        0.46500    0.83970    0.76090    1.000
    C30      C        0.43530    0.89110    0.82450    1.000
    H31      H        0.47410    0.83350    0.83830    1.000
    C31      C        0.38500    0.96790    0.85070    1.000
    C32      C        0.32960    0.05050    0.82940    1.000
    H32      H        0.29510    0.10530    0.84700    1.000
    C33      C        0.32140    0.05820    0.78610    1.000
    H33      H        0.28090    0.11180    0.77310    1.000
    C34      C        0.38990    0.95180    0.90030    1.000
    O7       O        0.44720    0.88770    0.91410    1.000
    O8       O        0.33500    0.99160    0.92090    1.000
    C35      C        0.23360    0.04350    0.61630    1.000
    C36      C        0.17090    0.95260    0.62710    1.000
    H34      H        0.17390    0.87340    0.65020    1.000
    C37      C        0.10540    0.97430    0.60530    1.000
    H35      H        0.06310    0.92140    0.61550    1.000
    C38      C        0.10330    0.07300    0.56920    1.000
    C39      C        0.16220    0.15760    0.55480    1.000
    H36      H        0.15810    0.22810    0.52980    1.000
    C40      C        0.23050    0.14010    0.57750    1.000
    H37      H        0.27240    0.19240    0.56660    1.000
    C41      C        0.03250    0.08600    0.54280    1.000
    O9       O        0.03470    0.18300    0.50760    1.000
    O10      O        0.97870    0.02350    0.55580    1.000
    C42      C        0.73550    0.49550    0.43650    1.000
    O11      O        0.67730    0.52190    0.45620    1.000
    O12      O        0.79580    0.45870    0.45960    1.000
    C43      C        0.73880    0.50260    0.39090    1.000
    C44      C        0.68890    0.58690    0.36550    1.000
    H38      H        0.65130    0.64400    0.37990    1.000
    C45      C        0.69120    0.59240    0.32020    1.000
    H39      H        0.65470    0.65250    0.30480    1.000
    C46      C        0.74440    0.51370    0.29550    1.000
    C47      C        0.79640    0.42540    0.32120    1.000
    H40      H        0.83390    0.36870    0.30640    1.000
    C48      C        0.79450    0.41890    0.36660    1.000
    H41      H        0.83040    0.35840    0.38230    1.000
    C49      C        0.74730    0.52230    0.24980    1.000
    C50      C        0.68370    0.54340    0.22120    1.000
    H42      H        0.63850    0.55340    0.23510    1.000
    C51      C        0.68440    0.54980    0.17610    1.000
    C52      C        0.74700    0.51930    0.15530    1.000
    H43      H        0.74650    0.50970    0.12410    1.000
    C53      C        0.81540    0.50060    0.17930    1.000
    C54      C        0.81260    0.49820    0.22460    1.000
    H44      H        0.85610    0.47940    0.24060    1.000
    C55      C        0.61480    0.56600    0.15130    1.000
    C56      C        0.55950    0.67030    0.16680    1.000
    H45      H        0.56530    0.72860    0.19390    1.000
    C57      C        0.49750    0.68570    0.14220    1.000
    H46      H        0.46090    0.75650    0.15300    1.000
    C58      C        0.48520    0.60650    0.10370    1.000
    C59      C        0.53740    0.49900    0.08660    1.000
    H47      H        0.52950    0.43890    0.06000    1.000
    C60      C        0.60190    0.48550    0.11090    1.000
    H48      H        0.63900    0.41780    0.09940    1.000
    C61      C        0.41670    0.62600    0.07780    1.000
    O13      O        0.36860    0.72360    0.09160    1.000
    O14      O        0.40430    0.53700    0.04560    1.000
    C62      C        0.88510    0.48680    0.15730    1.000
    C63      C        0.88660    0.40240    0.11270    1.000
    H49      H        0.84340    0.35880    0.10020    1.000
    C64      C        0.94630    0.38880    0.09130    1.000
    H50      H        0.94600    0.34170    0.06260    1.000
    C65      C        0.01430    0.44570    0.11120    1.000
    C66      C        0.00970    0.52210    0.15180    1.000
    H51      H        0.05240    0.56260    0.16550    1.000
    C67      C        0.94590    0.54150    0.17280    1.000
    H52      H        0.94610    0.59810    0.20030    1.000
    C68      C        0.08560    0.42530    0.08710    1.000
    O15      O        0.07930    0.40560    0.04740    1.000
    O16      O        0.14000    0.43990    0.11080    1.000
    H53      H        0.92460    0.59680    0.74650    1.000
    O17      O        0.84890    0.70000    0.77490    1.000
    H54      H        0.83210    0.60450    0.77020    1.000
    Zn5      Zn       0.36381    0.96886    0.05825    1.000
    O18      O        0.25790    0.40080    0.04400    1.000
    C69      C        0.46650    0.19030    0.27330    1.000
    Zn6      Zn       0.30317    0.61433    0.02373    1.000
    O19      O        0.35800    0.82360    0.00170    1.000
    B11      B        0.45550    0.16700    0.33000    1.000
    H55      H        0.41030    0.22100    0.34930    1.000
    Zn7      Zn       0.16786    0.36265    0.01592    1.000
    B12      B        0.44080    0.99180    0.29380    1.000
    H56      H        0.38680    0.93220    0.28930    1.000
    Zn8      Zn       0.44865    0.77632    0.97341    1.000
    B13      B        0.50160    0.01210    0.24930    1.000
    H57      H        0.48560    0.96770    0.21550    1.000
    B14      B        0.55340    0.19140    0.25720    1.000
    H58      H        0.57320    0.26270    0.22810    1.000
    B15      B        0.52590    0.29160    0.30610    1.000
    H59      H        0.52680    0.42940    0.31010    1.000
    B16      B        0.49330    0.97380    0.34410    1.000
    H60      H        0.47340    0.90180    0.37310    1.000
    B17      B        0.52480    0.87510    0.29330    1.000
    H61      H        0.52620    0.73760    0.28880    1.000
    B18      B        0.58860    0.99400    0.27140    1.000
    H62      H        0.63200    0.93330    0.25190    1.000
    B19      B        0.60730    0.17570    0.30600    1.000
    H63      H        0.66150    0.23520    0.30960    1.000
    C70      C        0.54380    0.15550    0.34840    1.000
    B20      B        0.58690    0.97680    0.33000    1.000
    H64      H        0.62830    0.90850    0.35010    1.000
    C71      C        0.40600    0.28800    0.25030    1.000
    H65      H        0.36130    0.28060    0.26820    1.000
    O20      O        0.42870    0.45800    0.24780    1.000
    H66      H        0.39340    0.52080    0.24270    1.000
    C72      C        0.39070    0.22440    0.20510    1.000
    C73      C        0.34470    0.09900    0.19670    1.000
    H67      H        0.31880    0.05000    0.22020    1.000
    C74      C        0.33470    0.03970    0.15240    1.000
    H68      H        0.29730    0.96180    0.14710    1.000
    N3       N        0.37280    0.08470    0.11900    1.000
    C75      C        0.42150    0.20300    0.12610    1.000
    H69      H        0.44960    0.23850    0.10200    1.000
    C76      C        0.43350    0.27780    0.16710    1.000
    H70      H        0.46880    0.36200    0.17050    1.000
    C77      C        0.56400    0.23160    0.39500    1.000
    H71      H        0.60380    0.31360    0.39140    1.000
    O21      O        0.50180    0.31450    0.40810    1.000
    H72      H        0.50760    0.35040    0.43390    1.000
    C78      C        0.58730    0.10130    0.42720    1.000
    C79      C        0.54260    0.02170    0.45570    1.000
    H73      H        0.49340    0.05210    0.45740    1.000
    C80      C        0.56970    0.89860    0.48160    1.000
    H74      H        0.53680    0.83750    0.49890    1.000
    N4       N        0.63980    0.85680    0.48440    1.000
    C81      C        0.68180    0.94180    0.45700    1.000
    H75      H        0.73120    0.91160    0.45660    1.000
    C82      C        0.66210    0.06040    0.43110    1.000
    H76      H        0.69680    0.12010    0.41470    1.000
    O22      O        0.25540    0.97530    0.06480    1.000
    C83      C        0.20610    0.86530    0.05720    1.000
    O23      O        0.21200    0.73490    0.03770    1.000
    C84      C        0.13360    0.90490    0.07730    1.000
    C85      C        0.12520    0.02180    0.11030    1.000
    H77      H        0.16470    0.08840    0.11960    1.000
    C86      C        0.06340    0.03950    0.12830    1.000
    H78      H        0.05980    0.11580    0.15210    1.000
    C87      C        0.00410    0.95840    0.11600    1.000
    C88      C        0.00760    0.84810    0.08090    1.000
    H79      H        0.96560    0.79490    0.06980    1.000
    C89      C        0.07540    0.81750    0.06240    1.000
    H80      H        0.08040    0.73710    0.03970    1.000
    C90      C        0.93480    0.98600    0.14280    1.000
    C91      C        0.93480    0.99620    0.18440    1.000
    H81      H        0.97970    0.00030    0.19970    1.000
    C92      C        0.86820    0.00220    0.21060    1.000
    C93      C        0.80730    0.99240    0.18710    1.000
    H82      H        0.76390    0.00420    0.20300    1.000
    C94      C        0.80030    0.96650    0.14170    1.000
    C95      C        0.86620    0.96310    0.11640    1.000
    H83      H        0.86600    0.94750    0.08540    1.000
    C96      C        0.87510    0.01620    0.25910    1.000
    C97      C        0.93070    0.10420    0.27840    1.000
    H84      H        0.96500    0.16030    0.26090    1.000
    C98      C        0.93530    0.10890    0.32450    1.000
    H85      H        0.97410    0.16650    0.33830    1.000
    C99      C        0.88500    0.03210    0.35070    1.000
    C100     C        0.82960    0.94950    0.32940    1.000
    H86      H        0.79510    0.89470    0.34700    1.000
    C101     C        0.82140    0.94180    0.28610    1.000
    H87      H        0.78090    0.88820    0.27310    1.000
    C102     C        0.88990    0.04820    0.40030    1.000
    O24      O        0.94720    0.11230    0.41410    1.000
    O25      O        0.83500    0.00840    0.42090    1.000
    C103     C        0.73360    0.95650    0.11630    1.000
    C104     C        0.67090    0.04740    0.12710    1.000
    H88      H        0.67390    0.12660    0.15020    1.000
    C105     C        0.60540    0.02570    0.10530    1.000
    H89      H        0.56310    0.07860    0.11550    1.000
    C106     C        0.60330    0.92700    0.06920    1.000
    C107     C        0.66220    0.84240    0.05480    1.000
    H90      H        0.65810    0.77190    0.02980    1.000
    C108     C        0.73050    0.85990    0.07750    1.000
    H91      H        0.77240    0.80760    0.06660    1.000
    C109     C        0.53250    0.91400    0.04280    1.000
    O26      O        0.53470    0.81700    0.00760    1.000
    O27      O        0.47870    0.97650    0.05580    1.000
    C110     C        0.23550    0.50450    0.93650    1.000
    O28      O        0.17730    0.47810    0.95620    1.000
    O29      O        0.29580    0.54130    0.95960    1.000
    C111     C        0.23880    0.49740    0.89090    1.000
    C112     C        0.18890    0.41310    0.86550    1.000
    H92      H        0.15130    0.35600    0.87990    1.000
    C113     C        0.19120    0.40760    0.82020    1.000
    H93      H        0.15470    0.34750    0.80480    1.000
    C114     C        0.24440    0.48630    0.79550    1.000
    C115     C        0.29640    0.57460    0.82120    1.000
    H94      H        0.33390    0.63130    0.80640    1.000
    C116     C        0.29450    0.58110    0.86660    1.000
    H95      H        0.33040    0.64160    0.88230    1.000
    C117     C        0.24730    0.47770    0.74980    1.000
    C118     C        0.18370    0.45660    0.72120    1.000
    H96      H        0.13850    0.44660    0.73510    1.000
    C119     C        0.18440    0.45020    0.67610    1.000
    C120     C        0.24700    0.48070    0.65530    1.000
    H97      H        0.24650    0.49030    0.62410    1.000
    C121     C        0.31540    0.49940    0.67930    1.000
    C122     C        0.31260    0.50180    0.72460    1.000
    H98      H        0.35610    0.52060    0.74060    1.000
    C123     C        0.11480    0.43400    0.65130    1.000
    C124     C        0.05950    0.32970    0.66680    1.000
    H99      H        0.06530    0.27140    0.69390    1.000
    C125     C        0.99750    0.31430    0.64220    1.000
    H100     H        0.96090    0.24350    0.65300    1.000
    C126     C        0.98520    0.39350    0.60370    1.000
    C127     C        0.03740    0.50100    0.58660    1.000
    H101     H        0.02950    0.56110    0.56000    1.000
    C128     C        0.10190    0.51450    0.61090    1.000
    H102     H        0.13900    0.58220    0.59940    1.000
    C129     C        0.91670    0.37400    0.57780    1.000
    O30      O        0.86860    0.27640    0.59160    1.000
    O31      O        0.90430    0.46300    0.54560    1.000
    C130     C        0.38510    0.51320    0.65730    1.000
    C131     C        0.38660    0.59760    0.61270    1.000
    H103     H        0.34340    0.64120    0.60020    1.000
    C132     C        0.44630    0.61120    0.59130    1.000
    H104     H        0.44600    0.65830    0.56260    1.000
    C133     C        0.51430    0.55430    0.61120    1.000
    C134     C        0.50970    0.47790    0.65180    1.000
    H105     H        0.55240    0.43740    0.66550    1.000
    C135     C        0.44590    0.45850    0.67280    1.000
    H106     H        0.44610    0.40190    0.70030    1.000
    C136     C        0.58560    0.57470    0.58710    1.000
    O32      O        0.57930    0.59440    0.54740    1.000
    O33      O        0.64000    0.56010    0.61080    1.000
    H107     H        0.42460    0.40320    0.24650    1.000
    O34      O        0.34890    0.30000    0.27490    1.000
    H108     H        0.33210    0.39550    0.27020    1.000
