# CIF file generated by openbabel 3.1.0, see https://openbabel.org
data_I
_chemical_name_common 'image0'
_cell_length_a 22.8218
_cell_length_b 21.5546
_cell_length_c 9.492
_cell_angle_alpha 90
_cell_angle_beta 91.3
_cell_angle_gamma 90
_space_group_name_H-M_alt 'P 1'
_space_group_name_Hall 'P 1'
loop_
    _symmetry_equiv_pos_as_xyz
    x,y,z
loop_
    _atom_site_label
    _atom_site_type_symbol
    _atom_site_fract_x
    _atom_site_fract_y
    _atom_site_fract_z
    _atom_site_occupancy
    P1       P        0.35330    0.33300    0.40633    1.000
    P2       P        0.16381    0.34755    0.40845    1.000
    P3       P        0.26659    0.47257    0.19748    1.000
    P4       P        0.50849    0.19590    0.73260    1.000
    Be1      Be       0.26657    0.42646    0.49140    1.000
    Be2      Be       0.43119    0.23070    0.49540    1.000
    O1       O        0.32195    0.37897    0.49540    1.000
    O2       O        0.39882    0.29827    0.49140    1.000
    O3       O        0.30961    0.28528    0.34680    1.000
    H1       H        0.32690    0.26020    0.29800    1.000
    O4       O        0.38152    0.36490    0.28490    1.000
    O5       O        0.46827    0.22001    0.35350    1.000
    O6       O        0.45716    0.29950    0.16400    1.000
    H2       H        0.47540    0.32060    0.10800    1.000
    O7       O        0.20431    0.38973    0.48800    1.000
    O8       O        0.14226    0.37765    0.27390    1.000
    O9       O        0.19751    0.28779    0.37000    1.000
    H3       H        0.17950    0.25740    0.39800    1.000
    O10      O        0.11376    0.32789    0.49730    1.000
    O11      O        0.26936    0.47333    0.35510    1.000
    O12      O        0.27075    0.53363    0.13470    1.000
    O13      O        0.19370    0.46300    0.15720    1.000
    O14      O        0.29150    0.41820    0.13410    1.000
    O15      O        0.47362    0.23205    0.63540    1.000
    O16      O        0.56440    0.18000    0.65260    1.000
    O17      O        0.47790    0.13370    0.75870    1.000
    O18      O        0.23450    0.42160    0.13200    1.000
    O19      O        0.33800    0.45300    0.15340    1.000
    P5       P        0.85330    0.83300    0.40633    1.000
    P6       P        0.66381    0.84755    0.40845    1.000
    P7       P        0.76659    0.97257    0.19748    1.000
    P8       P        0.00849    0.69590    0.73260    1.000
    Be3      Be       0.76657    0.92646    0.49140    1.000
    Be4      Be       0.93119    0.73070    0.49540    1.000
    O20      O        0.82195    0.87897    0.49540    1.000
    O21      O        0.89882    0.79827    0.49140    1.000
    O22      O        0.80961    0.78528    0.34680    1.000
    H4       H        0.82690    0.76020    0.29800    1.000
    O23      O        0.88152    0.86490    0.28490    1.000
    O24      O        0.96827    0.72001    0.35350    1.000
    O25      O        0.95716    0.79950    0.16400    1.000
    H5       H        0.97540    0.82060    0.10800    1.000
    O26      O        0.70431    0.88973    0.48800    1.000
    O27      O        0.64226    0.87765    0.27390    1.000
    O28      O        0.69751    0.78779    0.37000    1.000
    H6       H        0.67950    0.75740    0.39800    1.000
    O29      O        0.61376    0.82789    0.49730    1.000
    O30      O        0.76936    0.97333    0.35510    1.000
    O31      O        0.77075    0.03363    0.13470    1.000
    O32      O        0.69370    0.96300    0.15720    1.000
    O33      O        0.79150    0.91820    0.13410    1.000
    O34      O        0.97362    0.73205    0.63540    1.000
    O35      O        0.06440    0.68000    0.65260    1.000
    O36      O        0.97790    0.63370    0.75870    1.000
    O37      O        0.73450    0.92160    0.13200    1.000
    O38      O        0.83800    0.95300    0.15340    1.000
    P9       P        0.64670    0.33300    0.09367    1.000
    P10      P        0.83619    0.34755    0.09155    1.000
    P11      P        0.73341    0.47257    0.30252    1.000
    P12      P        0.49151    0.19590    0.76740    1.000
    Be5      Be       0.73343    0.42646    0.00860    1.000
    Be6      Be       0.56881    0.23070    0.00460    1.000
    O39      O        0.67805    0.37897    0.00460    1.000
    O40      O        0.60118    0.29827    0.00860    1.000
    O41      O        0.69039    0.28528    0.15320    1.000
    H7       H        0.67310    0.26020    0.20200    1.000
    O42      O        0.61848    0.36490    0.21510    1.000
    O43      O        0.53173    0.22001    0.14650    1.000
    O44      O        0.54284    0.29950    0.33600    1.000
    H8       H        0.52460    0.32060    0.39200    1.000
    O45      O        0.79569    0.38973    0.01200    1.000
    O46      O        0.85774    0.37765    0.22610    1.000
    O47      O        0.80249    0.28779    0.13000    1.000
    H9       H        0.82050    0.25740    0.10200    1.000
    O48      O        0.88624    0.32789    0.00270    1.000
    O49      O        0.73064    0.47333    0.14490    1.000
    O50      O        0.72925    0.53363    0.36530    1.000
    O51      O        0.80630    0.46300    0.34280    1.000
    O52      O        0.70850    0.41820    0.36590    1.000
    O53      O        0.52638    0.23205    0.86460    1.000
    O54      O        0.43560    0.18000    0.84740    1.000
    O55      O        0.52210    0.13370    0.74130    1.000
    O56      O        0.76550    0.42160    0.36800    1.000
    O57      O        0.66200    0.45300    0.34660    1.000
    P13      P        0.14670    0.83300    0.09367    1.000
    P14      P        0.33619    0.84755    0.09155    1.000
    P15      P        0.23341    0.97257    0.30252    1.000
    P16      P        0.99151    0.69590    0.76740    1.000
    Be7      Be       0.23343    0.92646    0.00860    1.000
    Be8      Be       0.06881    0.73070    0.00460    1.000
    O58      O        0.17805    0.87897    0.00460    1.000
    O59      O        0.10118    0.79827    0.00860    1.000
    O60      O        0.19039    0.78528    0.15320    1.000
    H10      H        0.17310    0.76020    0.20200    1.000
    O61      O        0.11848    0.86490    0.21510    1.000
    O62      O        0.03173    0.72001    0.14650    1.000
    O63      O        0.04284    0.79950    0.33600    1.000
    H11      H        0.02460    0.82060    0.39200    1.000
    O64      O        0.29569    0.88973    0.01200    1.000
    O65      O        0.35774    0.87765    0.22610    1.000
    O66      O        0.30249    0.78779    0.13000    1.000
    H12      H        0.32050    0.75740    0.10200    1.000
    O67      O        0.38624    0.82789    0.00270    1.000
    O68      O        0.23064    0.97333    0.14490    1.000
    O69      O        0.22925    0.03363    0.36530    1.000
    O70      O        0.30630    0.96300    0.34280    1.000
    O71      O        0.20850    0.91820    0.36590    1.000
    O72      O        0.02638    0.73205    0.86460    1.000
    O73      O        0.93560    0.68000    0.84740    1.000
    O74      O        0.02210    0.63370    0.74130    1.000
    O75      O        0.26550    0.92160    0.36800    1.000
    O76      O        0.16200    0.95300    0.34660    1.000
    P17      P        0.64670    0.66700    0.59367    1.000
    P18      P        0.83619    0.65245    0.59155    1.000
    P19      P        0.73341    0.52743    0.80252    1.000
    P20      P        0.49151    0.80410    0.26740    1.000
    Be9      Be       0.73343    0.57354    0.50860    1.000
    Be10     Be       0.56881    0.76930    0.50460    1.000
    O77      O        0.67805    0.62103    0.50460    1.000
    O78      O        0.60118    0.70173    0.50860    1.000
    O79      O        0.69039    0.71472    0.65320    1.000
    H13      H        0.67310    0.73980    0.70200    1.000
    O80      O        0.61848    0.63510    0.71510    1.000
    O81      O        0.53173    0.77999    0.64650    1.000
    O82      O        0.54284    0.70050    0.83600    1.000
    H14      H        0.52460    0.67940    0.89200    1.000
    O83      O        0.79569    0.61027    0.51200    1.000
    O84      O        0.85774    0.62235    0.72610    1.000
    O85      O        0.80249    0.71221    0.63000    1.000
    H15      H        0.82050    0.74260    0.60200    1.000
    O86      O        0.88624    0.67211    0.50270    1.000
    O87      O        0.73064    0.52667    0.64490    1.000
    O88      O        0.72925    0.46637    0.86530    1.000
    O89      O        0.80630    0.53700    0.84280    1.000
    O90      O        0.70850    0.58180    0.86590    1.000
    O91      O        0.52638    0.76795    0.36460    1.000
    O92      O        0.43560    0.82000    0.34740    1.000
    O93      O        0.52210    0.86630    0.24130    1.000
    O94      O        0.76550    0.57840    0.86800    1.000
    O95      O        0.66200    0.54700    0.84660    1.000
    P21      P        0.14670    0.16700    0.59367    1.000
    P22      P        0.33619    0.15245    0.59155    1.000
    P23      P        0.23341    0.02743    0.80252    1.000
    P24      P        0.99151    0.30410    0.26740    1.000
    Be11     Be       0.23343    0.07354    0.50860    1.000
    Be12     Be       0.06881    0.26930    0.50460    1.000
    O96      O        0.17805    0.12103    0.50460    1.000
    O97      O        0.10118    0.20173    0.50860    1.000
    O98      O        0.19039    0.21472    0.65320    1.000
    H16      H        0.17310    0.23980    0.70200    1.000
    O99      O        0.11848    0.13510    0.71510    1.000
    O100     O        0.03173    0.27999    0.64650    1.000
    O101     O        0.04284    0.20050    0.83600    1.000
    H17      H        0.02460    0.17940    0.89200    1.000
    O102     O        0.29569    0.11027    0.51200    1.000
    O103     O        0.35774    0.12235    0.72610    1.000
    O104     O        0.30249    0.21221    0.63000    1.000
    H18      H        0.32050    0.24260    0.60200    1.000
    O105     O        0.38624    0.17211    0.50270    1.000
    O106     O        0.23064    0.02667    0.64490    1.000
    O107     O        0.22925    0.96637    0.86530    1.000
    O108     O        0.30630    0.03700    0.84280    1.000
    O109     O        0.20850    0.08180    0.86590    1.000
    O110     O        0.02638    0.26795    0.36460    1.000
    O111     O        0.93560    0.32000    0.34740    1.000
    O112     O        0.02210    0.36630    0.24130    1.000
    O113     O        0.26550    0.07840    0.86800    1.000
    O114     O        0.16200    0.04700    0.84660    1.000
    P25      P        0.35330    0.66700    0.90633    1.000
    P26      P        0.16381    0.65245    0.90845    1.000
    P27      P        0.26659    0.52743    0.69748    1.000
    P28      P        0.50849    0.80410    0.23260    1.000
    Be13     Be       0.26657    0.57354    0.99140    1.000
    Be14     Be       0.43119    0.76930    0.99540    1.000
    O115     O        0.32195    0.62103    0.99540    1.000
    O116     O        0.39882    0.70173    0.99140    1.000
    O117     O        0.30961    0.71472    0.84680    1.000
    H19      H        0.32690    0.73980    0.79800    1.000
    O118     O        0.38152    0.63510    0.78490    1.000
    O119     O        0.46827    0.77999    0.85350    1.000
    O120     O        0.45716    0.70050    0.66400    1.000
    H20      H        0.47540    0.67940    0.60800    1.000
    O121     O        0.20431    0.61027    0.98800    1.000
    O122     O        0.14226    0.62235    0.77390    1.000
    O123     O        0.19751    0.71221    0.87000    1.000
    H21      H        0.17950    0.74260    0.89800    1.000
    O124     O        0.11376    0.67211    0.99730    1.000
    O125     O        0.26936    0.52667    0.85510    1.000
    O126     O        0.27075    0.46637    0.63470    1.000
    O127     O        0.19370    0.53700    0.65720    1.000
    O128     O        0.29150    0.58180    0.63410    1.000
    O129     O        0.47362    0.76795    0.13540    1.000
    O130     O        0.56440    0.82000    0.15260    1.000
    O131     O        0.47790    0.86630    0.25870    1.000
    O132     O        0.23450    0.57840    0.63200    1.000
    O133     O        0.33800    0.54700    0.65340    1.000
    P29      P        0.85330    0.16700    0.90633    1.000
    P30      P        0.66381    0.15245    0.90845    1.000
    P31      P        0.76659    0.02743    0.69748    1.000
    P32      P        0.00849    0.30410    0.23260    1.000
    Be15     Be       0.76657    0.07354    0.99140    1.000
    Be16     Be       0.93119    0.26930    0.99540    1.000
    O134     O        0.82195    0.12103    0.99540    1.000
    O135     O        0.89882    0.20173    0.99140    1.000
    O136     O        0.80961    0.21472    0.84680    1.000
    H22      H        0.82690    0.23980    0.79800    1.000
    O137     O        0.88152    0.13510    0.78490    1.000
    O138     O        0.96827    0.27999    0.85350    1.000
    O139     O        0.95716    0.20050    0.66400    1.000
    H23      H        0.97540    0.17940    0.60800    1.000
    O140     O        0.70431    0.11027    0.98800    1.000
    O141     O        0.64226    0.12235    0.77390    1.000
    O142     O        0.69751    0.21221    0.87000    1.000
    H24      H        0.67950    0.24260    0.89800    1.000
    O143     O        0.61376    0.17211    0.99730    1.000
    O144     O        0.76936    0.02667    0.85510    1.000
    O145     O        0.77075    0.96637    0.63470    1.000
    O146     O        0.69370    0.03700    0.65720    1.000
    O147     O        0.79150    0.08180    0.63410    1.000
    O148     O        0.97362    0.26795    0.13540    1.000
    O149     O        0.06440    0.32000    0.15260    1.000
    O150     O        0.97790    0.36630    0.25870    1.000
    O151     O        0.73450    0.07840    0.63200    1.000
    O152     O        0.83800    0.04700    0.65340    1.000
    P33      P        0.50000    0.25913    0.25000    1.000
    P34      P        0.00000    0.75913    0.25000    1.000
    P35      P        0.50000    0.74087    0.75000    1.000
    P36      P        0.00000    0.24087    0.75000    1.000
