# CIF file generated by openbabel 3.1.0, see https://openbabel.org
data_I
_chemical_name_common 'image0'
_cell_length_a 15.701
_cell_length_b 14.964
_cell_length_c 17.339
_cell_angle_alpha 90
_cell_angle_beta 115.096
_cell_angle_gamma 90
_space_group_name_H-M_alt 'P 1'
_space_group_name_Hall 'P 1'
loop_
    _symmetry_equiv_pos_as_xyz
    x,y,z
loop_
    _atom_site_label
    _atom_site_type_symbol
    _atom_site_fract_x
    _atom_site_fract_y
    _atom_site_fract_z
    _atom_site_occupancy
    Zn1      Zn       0.04440    0.94929    0.34516    1.000
    O1       O        0.04330    0.94200    0.68140    1.000
    O2       O        0.13450    0.97130    0.81740    1.000
    O3       O        0.42970    0.62940    0.81420    1.000
    O4       O        0.38930    0.65730    0.67710    1.000
    N1       N        0.10080    0.95190    0.47100    1.000
    N2       N        0.16790    0.91270    0.60390    1.000
    C1       C        0.12540    0.88470    0.52300    1.000
    H1       H        0.11490    0.82520    0.50640    1.000
    C2       C        0.13010    0.02820    0.52130    1.000
    H2       H        0.12380    0.08670    0.50150    1.000
    C3       C        0.16860    0.00330    0.60210    1.000
    H3       H        0.19200    0.04100    0.64920    1.000
    C4       C        0.20850    0.85710    0.67650    1.000
    C5       C        0.27080    0.79350    0.67610    1.000
    H4       H        0.28240    0.78590    0.62820    1.000
    C6       C        0.31600    0.74110    0.74660    1.000
    C7       C        0.30190    0.75350    0.81910    1.000
    H5       H        0.33370    0.71890    0.86750    1.000
    C8       C        0.23880    0.81920    0.81780    1.000
    H6       H        0.23020    0.82940    0.86690    1.000
    C9       C        0.18880    0.86940    0.74680    1.000
    C10      C        0.11640    0.93300    0.74930    1.000
    C11      C        0.38460    0.67020    0.74580    1.000
    Zn2      Zn       0.54440    0.44929    0.34516    1.000
    O5       O        0.54330    0.44200    0.68140    1.000
    O6       O        0.63450    0.47130    0.81740    1.000
    O7       O        0.92970    0.12940    0.81420    1.000
    O8       O        0.88930    0.15730    0.67710    1.000
    N3       N        0.60080    0.45190    0.47100    1.000
    N4       N        0.66790    0.41270    0.60390    1.000
    C12      C        0.62540    0.38470    0.52300    1.000
    H7       H        0.61490    0.32520    0.50640    1.000
    C13      C        0.63010    0.52820    0.52130    1.000
    H8       H        0.62380    0.58670    0.50150    1.000
    C14      C        0.66860    0.50330    0.60210    1.000
    H9       H        0.69200    0.54100    0.64920    1.000
    C15      C        0.70850    0.35710    0.67650    1.000
    C16      C        0.77080    0.29350    0.67610    1.000
    H10      H        0.78240    0.28590    0.62820    1.000
    C17      C        0.81600    0.24110    0.74660    1.000
    C18      C        0.80190    0.25350    0.81910    1.000
    H11      H        0.83370    0.21890    0.86750    1.000
    C19      C        0.73880    0.31920    0.81780    1.000
    H12      H        0.73020    0.32940    0.86690    1.000
    C20      C        0.68880    0.36940    0.74680    1.000
    C21      C        0.61640    0.43300    0.74930    1.000
    C22      C        0.88460    0.17020    0.74580    1.000
    Zn3      Zn       0.95560    0.94929    0.15484    1.000
    O9       O        0.95670    0.94200    0.81860    1.000
    O10      O        0.86550    0.97130    0.68260    1.000
    O11      O        0.57030    0.62940    0.68580    1.000
    O12      O        0.61070    0.65730    0.82290    1.000
    N5       N        0.89920    0.95190    0.02900    1.000
    N6       N        0.83210    0.91270    0.89610    1.000
    C23      C        0.87460    0.88470    0.97700    1.000
    H13      H        0.88510    0.82520    0.99360    1.000
    C24      C        0.86990    0.02820    0.97870    1.000
    H14      H        0.87620    0.08670    0.99850    1.000
    C25      C        0.83140    0.00330    0.89790    1.000
    H15      H        0.80800    0.04100    0.85080    1.000
    C26      C        0.79150    0.85710    0.82350    1.000
    C27      C        0.72920    0.79350    0.82390    1.000
    H16      H        0.71760    0.78590    0.87180    1.000
    C28      C        0.68400    0.74110    0.75340    1.000
    C29      C        0.69810    0.75350    0.68090    1.000
    H17      H        0.66630    0.71890    0.63250    1.000
    C30      C        0.76120    0.81920    0.68220    1.000
    H18      H        0.76980    0.82940    0.63310    1.000
    C31      C        0.81120    0.86940    0.75320    1.000
    C32      C        0.88360    0.93300    0.75070    1.000
    C33      C        0.61540    0.67020    0.75420    1.000
    Zn4      Zn       0.45560    0.44929    0.15484    1.000
    O13      O        0.45670    0.44200    0.81860    1.000
    O14      O        0.36550    0.47130    0.68260    1.000
    O15      O        0.07030    0.12940    0.68580    1.000
    O16      O        0.11070    0.15730    0.82290    1.000
    N7       N        0.39920    0.45190    0.02900    1.000
    N8       N        0.33210    0.41270    0.89610    1.000
    C34      C        0.37460    0.38470    0.97700    1.000
    H19      H        0.38510    0.32520    0.99360    1.000
    C35      C        0.36990    0.52820    0.97870    1.000
    H20      H        0.37620    0.58670    0.99850    1.000
    C36      C        0.33140    0.50330    0.89790    1.000
    H21      H        0.30800    0.54100    0.85080    1.000
    C37      C        0.29150    0.35710    0.82350    1.000
    C38      C        0.22920    0.29350    0.82390    1.000
    H22      H        0.21760    0.28590    0.87180    1.000
    C39      C        0.18400    0.24110    0.75340    1.000
    C40      C        0.19810    0.25350    0.68090    1.000
    H23      H        0.16630    0.21890    0.63250    1.000
    C41      C        0.26120    0.31920    0.68220    1.000
    H24      H        0.26980    0.32940    0.63310    1.000
    C42      C        0.31120    0.36940    0.75320    1.000
    C43      C        0.38360    0.43300    0.75070    1.000
    C44      C        0.11540    0.17020    0.75420    1.000
    Zn5      Zn       0.95560    0.05071    0.65484    1.000
    O17      O        0.95670    0.05800    0.31860    1.000
    O18      O        0.86550    0.02870    0.18260    1.000
    O19      O        0.57030    0.37060    0.18580    1.000
    O20      O        0.61070    0.34270    0.32290    1.000
    N9       N        0.89920    0.04810    0.52900    1.000
    N10      N        0.83210    0.08730    0.39610    1.000
    C45      C        0.87460    0.11530    0.47700    1.000
    H25      H        0.88510    0.17480    0.49360    1.000
    C46      C        0.86990    0.97180    0.47870    1.000
    H26      H        0.87620    0.91330    0.49850    1.000
    C47      C        0.83140    0.99670    0.39790    1.000
    H27      H        0.80800    0.95900    0.35080    1.000
    C48      C        0.79150    0.14290    0.32350    1.000
    C49      C        0.72920    0.20650    0.32390    1.000
    H28      H        0.71760    0.21410    0.37180    1.000
    C50      C        0.68400    0.25890    0.25340    1.000
    C51      C        0.69810    0.24650    0.18090    1.000
    H29      H        0.66630    0.28110    0.13250    1.000
    C52      C        0.76120    0.18080    0.18220    1.000
    H30      H        0.76980    0.17060    0.13310    1.000
    C53      C        0.81120    0.13060    0.25320    1.000
    C54      C        0.88360    0.06700    0.25070    1.000
    C55      C        0.61540    0.32980    0.25420    1.000
    Zn6      Zn       0.45560    0.55071    0.65484    1.000
    O21      O        0.45670    0.55800    0.31860    1.000
    O22      O        0.36550    0.52870    0.18260    1.000
    O23      O        0.07030    0.87060    0.18580    1.000
    O24      O        0.11070    0.84270    0.32290    1.000
    N11      N        0.39920    0.54810    0.52900    1.000
    N12      N        0.33210    0.58730    0.39610    1.000
    C56      C        0.37460    0.61530    0.47700    1.000
    H31      H        0.38510    0.67480    0.49360    1.000
    C57      C        0.36990    0.47180    0.47870    1.000
    H32      H        0.37620    0.41330    0.49850    1.000
    C58      C        0.33140    0.49670    0.39790    1.000
    H33      H        0.30800    0.45900    0.35080    1.000
    C59      C        0.29150    0.64290    0.32350    1.000
    C60      C        0.22920    0.70650    0.32390    1.000
    H34      H        0.21760    0.71410    0.37180    1.000
    C61      C        0.18400    0.75890    0.25340    1.000
    C62      C        0.19810    0.74650    0.18090    1.000
    H35      H        0.16630    0.78110    0.13250    1.000
    C63      C        0.26120    0.68080    0.18220    1.000
    H36      H        0.26980    0.67060    0.13310    1.000
    C64      C        0.31120    0.63060    0.25320    1.000
    C65      C        0.38360    0.56700    0.25070    1.000
    C66      C        0.11540    0.82980    0.25420    1.000
    Zn7      Zn       0.04440    0.05071    0.84516    1.000
    O25      O        0.04330    0.05800    0.18140    1.000
    O26      O        0.13450    0.02870    0.31740    1.000
    O27      O        0.42970    0.37060    0.31420    1.000
    O28      O        0.38930    0.34270    0.17710    1.000
    N13      N        0.10080    0.04810    0.97100    1.000
    N14      N        0.16790    0.08730    0.10390    1.000
    C67      C        0.12540    0.11530    0.02300    1.000
    H37      H        0.11490    0.17480    0.00640    1.000
    C68      C        0.13010    0.97180    0.02130    1.000
    H38      H        0.12380    0.91330    0.00150    1.000
    C69      C        0.16860    0.99670    0.10210    1.000
    H39      H        0.19200    0.95900    0.14920    1.000
    C70      C        0.20850    0.14290    0.17650    1.000
    C71      C        0.27080    0.20650    0.17610    1.000
    H40      H        0.28240    0.21410    0.12820    1.000
    C72      C        0.31600    0.25890    0.24660    1.000
    C73      C        0.30190    0.24650    0.31910    1.000
    H41      H        0.33370    0.28110    0.36750    1.000
    C74      C        0.23880    0.18080    0.31780    1.000
    H42      H        0.23020    0.17060    0.36690    1.000
    C75      C        0.18880    0.13060    0.24680    1.000
    C76      C        0.11640    0.06700    0.24930    1.000
    C77      C        0.38460    0.32980    0.24580    1.000
    Zn8      Zn       0.54440    0.55071    0.84516    1.000
    O29      O        0.54330    0.55800    0.18140    1.000
    O30      O        0.63450    0.52870    0.31740    1.000
    O31      O        0.92970    0.87060    0.31420    1.000
    O32      O        0.88930    0.84270    0.17710    1.000
    N15      N        0.60080    0.54810    0.97100    1.000
    N16      N        0.66790    0.58730    0.10390    1.000
    C78      C        0.62540    0.61530    0.02300    1.000
    H43      H        0.61490    0.67480    0.00640    1.000
    C79      C        0.63010    0.47180    0.02130    1.000
    H44      H        0.62380    0.41330    0.00150    1.000
    C80      C        0.66860    0.49670    0.10210    1.000
    H45      H        0.69200    0.45900    0.14920    1.000
    C81      C        0.70850    0.64290    0.17650    1.000
    C82      C        0.77080    0.70650    0.17610    1.000
    H46      H        0.78240    0.71410    0.12820    1.000
    C83      C        0.81600    0.75890    0.24660    1.000
    C84      C        0.80190    0.74650    0.31910    1.000
    H47      H        0.83370    0.78110    0.36750    1.000
    C85      C        0.73880    0.68080    0.31780    1.000
    H48      H        0.73020    0.67060    0.36690    1.000
    C86      C        0.68880    0.63060    0.24680    1.000
    C87      C        0.61640    0.56700    0.24930    1.000
    C88      C        0.88460    0.82980    0.24580    1.000
