# CIF file generated by openbabel 3.1.0, see https://openbabel.org
data_I
_chemical_name_common 'TUMGUD_clean'
_cell_length_a 8.505
_cell_length_b 9.536
_cell_length_c 13.145
_cell_angle_alpha 90
_cell_angle_beta 90
_cell_angle_gamma 94.73
_space_group_name_H-M_alt 'P 1'
_space_group_name_Hall 'P 1'
loop_
    _symmetry_equiv_pos_as_xyz
    x,y,z
loop_
    _atom_site_label
    _atom_site_type_symbol
    _atom_site_fract_x
    _atom_site_fract_y
    _atom_site_fract_z
    _atom_site_occupancy
    Eu1      Eu       0.03952    0.49251    0.76835    1.000
    Eu2      Eu       0.46048    0.00749    0.26835    1.000
    Eu3      Eu       0.96048    0.50749    0.23165    1.000
    Eu4      Eu       0.53952    0.99251    0.73165    1.000
    C1       C        0.09250    0.12450    0.97380    1.000
    C2       C        0.97570    0.12600    0.04920    1.000
    C3       C        0.11760    0.99720    0.92590    1.000
    C4       C        0.19840    0.25720    0.94780    1.000
    C5       C        0.96030    0.25590    0.11080    1.000
    C6       C        0.25380    0.98970    0.85300    1.000
    C7       C        0.40750    0.37550    0.47380    1.000
    C8       C        0.52430    0.37400    0.54920    1.000
    C9       C        0.38240    0.50280    0.42590    1.000
    C10      C        0.30160    0.24280    0.44780    1.000
    C11      C        0.53970    0.24410    0.61080    1.000
    C12      C        0.24620    0.51030    0.35300    1.000
    C13      C        0.90750    0.87550    0.02620    1.000
    C14      C        0.02430    0.87400    0.95080    1.000
    C15      C        0.88240    0.00280    0.07410    1.000
    C16      C        0.80160    0.74280    0.05220    1.000
    C17      C        0.03970    0.74410    0.88920    1.000
    C18      C        0.74620    0.01030    0.14700    1.000
    C19      C        0.59250    0.62450    0.52620    1.000
    C20      C        0.47570    0.62600    0.45080    1.000
    C21      C        0.61760    0.49720    0.57410    1.000
    C22      C        0.69840    0.75720    0.55220    1.000
    C23      C        0.46030    0.75590    0.38920    1.000
    C24      C        0.75380    0.48970    0.64700    1.000
    O1       O        0.14910    0.34140    0.88580    1.000
    O2       O        0.33140    0.26880    0.98920    1.000
    O3       O        0.95040    0.37280    0.06700    1.000
    O4       O        0.96260    0.24790    0.20570    1.000
    O5       O        0.28250    0.08400    0.78770    1.000
    O6       O        0.34210    0.88970    0.86300    1.000
    O7       O        0.35090    0.15860    0.38580    1.000
    O8       O        0.16860    0.23120    0.48920    1.000
    O9       O        0.54960    0.12720    0.56700    1.000
    O10      O        0.53740    0.25210    0.70570    1.000
    O11      O        0.21750    0.41600    0.28770    1.000
    O12      O        0.15790    0.61030    0.36300    1.000
    O13      O        0.85090    0.65860    0.11420    1.000
    O14      O        0.66860    0.73120    0.01080    1.000
    O15      O        0.04960    0.62720    0.93300    1.000
    O16      O        0.03740    0.75210    0.79430    1.000
    O17      O        0.71750    0.91600    0.21230    1.000
    O18      O        0.65790    0.11030    0.13700    1.000
    O19      O        0.64910    0.84140    0.61420    1.000
    O20      O        0.83140    0.76880    0.51080    1.000
    O21      O        0.45040    0.87280    0.43300    1.000
    O22      O        0.46260    0.74790    0.29430    1.000
    O23      O        0.78250    0.58400    0.71230    1.000
    O24      O        0.84210    0.38970    0.63700    1.000
