# CIF file generated by openbabel 3.1.0, see https://openbabel.org
data_I
_chemical_name_common 'image0'
_cell_length_a 19.999
_cell_length_b 18.6284
_cell_length_c 35.123
_cell_angle_alpha 90
_cell_angle_beta 90
_cell_angle_gamma 90
_space_group_name_H-M_alt 'P 1'
_space_group_name_Hall 'P 1'
loop_
    _symmetry_equiv_pos_as_xyz
    x,y,z
loop_
    _atom_site_label
    _atom_site_type_symbol
    _atom_site_fract_x
    _atom_site_fract_y
    _atom_site_fract_z
    _atom_site_occupancy
    C1       C        0.72090    0.34110    0.67700    1.000
    C2       C        0.68300    0.41120    0.67800    1.000
    C3       C        0.97330    0.26850    0.62890    1.000
    C4       C        0.67900    0.44920    0.71160    1.000
    H1       H        0.69980    0.43100    0.73320    1.000
    C5       C        0.64480    0.51400    0.71420    1.000
    H2       H        0.64230    0.53890    0.73710    1.000
    C6       C        0.61370    0.54100    0.68080    1.000
    C7       C        0.61950    0.50420    0.64700    1.000
    H3       H        0.60070    0.52310    0.62500    1.000
    C8       C        0.65270    0.43980    0.64560    1.000
    H4       H        0.65500    0.41490    0.62270    1.000
    C9       C        0.57220    0.60870    0.68300    1.000
    C10      C        0.73540    0.10900    0.66670    1.000
    C11      C        0.69880    0.03740    0.67030    1.000
    C12      C        0.69150    0.99120    0.63950    1.000
    H5       H        0.71120    0.00240    0.61630    1.000
    C13      C        0.65530    0.92900    0.64350    1.000
    H6       H        0.64860    0.89920    0.62260    1.000
    C14      C        0.62860    0.91040    0.67870    1.000
    C15      C        0.63550    0.95540    0.70970    1.000
    H7       H        0.61640    0.94340    0.73300    1.000
    C16      C        0.67070    0.01750    0.70570    1.000
    H8       H        0.67630    0.04750    0.72660    1.000
    C17      C        0.59080    0.84040    0.68280    1.000
    C18      C        0.83340    0.14020    0.52710    1.000
    C19      C        0.86650    0.06670    0.53000    1.000
    C20      C        0.88820    0.03300    0.49700    1.000
    H9       H        0.87950    0.05290    0.47330    1.000
    C21      C        0.92360    0.96850    0.50020    1.000
    H10      H        0.94120    0.94700    0.47850    1.000
    C22      C        0.93230    0.93670    0.53490    1.000
    C23      C        0.90870    0.96680    0.56600    1.000
    H11      H        0.91330    0.94370    0.58940    1.000
    C24      C        0.87580    0.03520    0.56410    1.000
    H12      H        0.86100    0.05760    0.58620    1.000
    C25      C        0.96940    0.86670    0.53880    1.000
    C26      C        0.68530    0.25620    0.43640    1.000
    C27      C        0.65370    0.25700    0.39660    1.000
    C28      C        0.59650    0.21900    0.39170    1.000
    H13      H        0.57680    0.19440    0.41190    1.000
    C29      C        0.56770    0.21790    0.35480    1.000
    H14      H        0.53240    0.18720    0.34920    1.000
    C30      C        0.59360    0.26450    0.32630    1.000
    C31      C        0.64600    0.30540    0.33450    1.000
    H15      H        0.66140    0.33810    0.31650    1.000
    C32      C        0.67810    0.30020    0.36910    1.000
    H16      H        0.71670    0.32670    0.37350    1.000
    C33      C        0.55670    0.26530    0.28840    1.000
    C34      C        0.82580    0.36850    0.54870    1.000
    C35      C        0.86000    0.43940    0.55230    1.000
    C36      C        0.87400    0.47210    0.58910    1.000
    H17      H        0.86030    0.44930    0.61140    1.000
    C37      C        0.90780    0.53730    0.59110    1.000
    H18      H        0.91770    0.55780    0.61460    1.000
    C38      C        0.92550    0.56950    0.55940    1.000
    C39      C        0.91260    0.54170    0.52340    1.000
    H19      H        0.92530    0.56770    0.50190    1.000
    C40      C        0.88140    0.47670    0.51900    1.000
    H20      H        0.87430    0.45740    0.49490    1.000
    C41      C        0.96340    0.64190    0.56170    1.000
    C42      C        0.91770    0.27310    0.65710    1.000
    C43      C        0.03050    0.31250    0.63170    1.000
    H21      H        0.03190    0.34820    0.65020    1.000
    C44      C        0.08340    0.30390    0.60790    1.000
    H22      H        0.11930    0.33560    0.60930    1.000
    C45      C        0.02650    0.20010    0.57710    1.000
    H23      H        0.02600    0.16410    0.55880    1.000
    C46      C        0.97180    0.20970    0.60110    1.000
    H24      H        0.93500    0.17940    0.59950    1.000
    C47      C        0.08450    0.24670    0.58090    1.000
    C48      C        0.14310    0.23570    0.55530    1.000
    C49      C        0.16070    0.73570    0.57150    1.000
    C50      C        0.21890    0.74930    0.59730    1.000
    C51      C        0.22060    0.79930    0.62240    1.000
    H25      H        0.18350    0.82880    0.62550    1.000
    C52      C        0.27830    0.81070    0.64570    1.000
    H26      H        0.28050    0.85050    0.66160    1.000
    C53      C        0.32860    0.76440    0.64460    1.000
    C54      C        0.32880    0.70680    0.61820    1.000
    H27      H        0.36540    0.67620    0.61660    1.000
    C55      C        0.27420    0.69680    0.59520    1.000
    H28      H        0.27210    0.65800    0.57860    1.000
    C56      C        0.38780    0.77070    0.67120    1.000
    C57      C        0.11210    0.73870    0.44890    1.000
    C58      C        0.13590    0.74120    0.40710    1.000
    C59      C        0.18460    0.78460    0.39550    1.000
    H29      H        0.20780    0.81160    0.41340    1.000
    C60      C        0.20190    0.79070    0.35650    1.000
    H30      H        0.23540    0.82170    0.34850    1.000
    C61      C        0.16750    0.74930    0.33140    1.000
    C62      C        0.11730    0.69920    0.34460    1.000
    H31      H        0.09540    0.66880    0.32770    1.000
    C63      C        0.10340    0.69780    0.38160    1.000
    H32      H        0.07080    0.66640    0.39050    1.000
    C64      C        0.18070    0.75830    0.28940    1.000
    Ca1      Ca       0.77774    0.23396    0.60644    1.000
    Cd1      Cd       0.81886    0.22973    0.71112    1.000
    O1       O        0.75200    0.32390    0.70580    1.000
    Ca2      Ca       0.01954    0.77118    0.61684    1.000
    Cd2      Cd       0.74735    0.25795    0.50412    1.000
    O2       O        0.71630    0.30410    0.64730    1.000
    Cd3      Cd       0.06044    0.74530    0.51810    1.000
    O3       O        0.56440    0.63850    0.71540    1.000
    Cd4      Cd       0.49941    0.73430    0.71908    1.000
    O4       O        0.55090    0.63270    0.65220    1.000
    O5       O        0.74620    0.14350    0.69740    1.000
    O6       O        0.75130    0.12620    0.63360    1.000
    O7       O        0.56500    0.82800    0.71510    1.000
    O8       O        0.58370    0.79840    0.65380    1.000
    O9       O        0.82950    0.17650    0.55710    1.000
    O10      O        0.81060    0.15830    0.49630    1.000
    O11      O        0.97090    0.83730    0.57010    1.000
    O12      O        0.00080    0.84390    0.50860    1.000
    O13      O        0.73240    0.30020    0.44280    1.000
    O14      O        0.66950    0.20820    0.45960    1.000
    O15      O        0.57610    0.31240    0.26490    1.000
    O16      O        0.51160    0.22260    0.28070    1.000
    O17      O        0.81380    0.34680    0.51550    1.000
    O18      O        0.80780    0.33790    0.57880    1.000
    O19      O        0.97390    0.66850    0.59190    1.000
    O20      O        0.98600    0.66400    0.53020    1.000
    O21      O        0.86420    0.23910    0.65010    1.000
    O22      O        0.92620    0.30780    0.68520    1.000
    O23      O        0.14080    0.18910    0.53100    1.000
    O24      O        0.19300    0.27530    0.55930    1.000
    O25      O        0.15970    0.68650    0.54720    1.000
    O26      O        0.11160    0.78240    0.57430    1.000
    O27      O        0.43660    0.72830    0.66520    1.000
    O28      O        0.38430    0.81160    0.69920    1.000
    O29      O        0.07130    0.69140    0.45850    1.000
    O30      O        0.13700    0.78340    0.47110    1.000
    O31      O        0.14340    0.72400    0.26640    1.000
    O32      O        0.22660    0.79840    0.27760    1.000
    C65      C        0.27910    0.65890    0.17700    1.000
    C66      C        0.31700    0.58880    0.17800    1.000
    C67      C        0.02670    0.73150    0.12890    1.000
    C68      C        0.32100    0.55080    0.21160    1.000
    H33      H        0.30020    0.56900    0.23320    1.000
    C69      C        0.35520    0.48600    0.21420    1.000
    H34      H        0.35770    0.46110    0.23710    1.000
    C70      C        0.38630    0.45900    0.18080    1.000
    C71      C        0.38050    0.49580    0.14700    1.000
    H35      H        0.39930    0.47690    0.12500    1.000
    C72      C        0.34730    0.56020    0.14560    1.000
    H36      H        0.34500    0.58510    0.12270    1.000
    C73      C        0.42780    0.39130    0.18300    1.000
    C74      C        0.26460    0.89100    0.16670    1.000
    C75      C        0.30120    0.96260    0.17030    1.000
    C76      C        0.30850    0.00880    0.13950    1.000
    H37      H        0.28880    0.99760    0.11630    1.000
    C77      C        0.34470    0.07100    0.14350    1.000
    H38      H        0.35140    0.10080    0.12260    1.000
    C78      C        0.37140    0.08960    0.17870    1.000
    C79      C        0.36450    0.04460    0.20970    1.000
    H39      H        0.38360    0.05660    0.23300    1.000
    C80      C        0.32930    0.98250    0.20570    1.000
    H40      H        0.32370    0.95250    0.22660    1.000
    C81      C        0.40920    0.15960    0.18280    1.000
    C82      C        0.16660    0.85980    0.02710    1.000
    C83      C        0.13350    0.93330    0.03000    1.000
    C84      C        0.11180    0.96700    0.99700    1.000
    H41      H        0.12050    0.94710    0.97330    1.000
    C85      C        0.07640    0.03150    0.00020    1.000
    H42      H        0.05880    0.05300    0.97850    1.000
    C86      C        0.06770    0.06330    0.03490    1.000
    C87      C        0.09130    0.03320    0.06600    1.000
    H43      H        0.08670    0.05630    0.08940    1.000
    C88      C        0.12420    0.96480    0.06410    1.000
    H44      H        0.13900    0.94240    0.08620    1.000
    C89      C        0.03060    0.13330    0.03880    1.000
    C90      C        0.31470    0.74380    0.93640    1.000
    C91      C        0.34630    0.74300    0.89660    1.000
    C92      C        0.40350    0.78100    0.89170    1.000
    H45      H        0.42320    0.80560    0.91190    1.000
    C93      C        0.43230    0.78210    0.85480    1.000
    H46      H        0.46760    0.81280    0.84920    1.000
    C94      C        0.40640    0.73550    0.82630    1.000
    C95      C        0.35400    0.69460    0.83450    1.000
    H47      H        0.33860    0.66190    0.81650    1.000
    C96      C        0.32190    0.69980    0.86910    1.000
    H48      H        0.28330    0.67330    0.87350    1.000
    C97      C        0.44330    0.73470    0.78840    1.000
    C98      C        0.17420    0.63150    0.04870    1.000
    C99      C        0.14000    0.56060    0.05230    1.000
    C100     C        0.12600    0.52790    0.08910    1.000
    H49      H        0.13970    0.55070    0.11140    1.000
    C101     C        0.09220    0.46270    0.09110    1.000
    H50      H        0.08230    0.44220    0.11460    1.000
    C102     C        0.07450    0.43050    0.05940    1.000
    C103     C        0.08740    0.45830    0.02340    1.000
    H51      H        0.07470    0.43230    0.00190    1.000
    C104     C        0.11860    0.52330    0.01900    1.000
    H52      H        0.12570    0.54260    0.99490    1.000
    C105     C        0.03660    0.35810    0.06170    1.000
    C106     C        0.08230    0.72690    0.15710    1.000
    C107     C        0.96950    0.68750    0.13170    1.000
    H53      H        0.96810    0.65180    0.15020    1.000
    C108     C        0.91660    0.69610    0.10790    1.000
    H54      H        0.88070    0.66440    0.10930    1.000
    C109     C        0.97350    0.79990    0.07710    1.000
    H55      H        0.97400    0.83590    0.05880    1.000
    C110     C        0.02820    0.79030    0.10110    1.000
    H56      H        0.06500    0.82060    0.09950    1.000
    C111     C        0.91550    0.75330    0.08090    1.000
    C112     C        0.85690    0.76430    0.05530    1.000
    C113     C        0.83930    0.26430    0.07150    1.000
    C114     C        0.78110    0.25070    0.09730    1.000
    C115     C        0.77940    0.20070    0.12240    1.000
    H57      H        0.81650    0.17120    0.12550    1.000
    C116     C        0.72170    0.18930    0.14570    1.000
    H58      H        0.71950    0.14950    0.16160    1.000
    C117     C        0.67140    0.23560    0.14460    1.000
    C118     C        0.67120    0.29320    0.11820    1.000
    H59      H        0.63460    0.32380    0.11660    1.000
    C119     C        0.72580    0.30320    0.09520    1.000
    H60      H        0.72790    0.34200    0.07860    1.000
    C120     C        0.61220    0.22930    0.17120    1.000
    C121     C        0.88790    0.26130    0.94890    1.000
    C122     C        0.86410    0.25880    0.90710    1.000
    C123     C        0.81540    0.21540    0.89550    1.000
    H61      H        0.79220    0.18840    0.91340    1.000
    C124     C        0.79810    0.20930    0.85650    1.000
    H62      H        0.76460    0.17830    0.84850    1.000
    C125     C        0.83250    0.25070    0.83140    1.000
    C126     C        0.88270    0.30080    0.84460    1.000
    H63      H        0.90460    0.33120    0.82770    1.000
    C127     C        0.89660    0.30220    0.88160    1.000
    H64      H        0.92920    0.33360    0.89050    1.000
    C128     C        0.81930    0.24170    0.78940    1.000
    Ca3      Ca       0.22226    0.76604    0.10644    1.000
    Cd5      Cd       0.18114    0.77027    0.21112    1.000
    O33      O        0.24800    0.67610    0.20580    1.000
    Ca4      Ca       0.98046    0.22882    0.11684    1.000
    Cd6      Cd       0.25265    0.74205    0.00412    1.000
    O34      O        0.28370    0.69590    0.14730    1.000
    Cd7      Cd       0.93956    0.25470    0.01810    1.000
    O35      O        0.43560    0.36150    0.21540    1.000
    Cd8      Cd       0.50059    0.26570    0.21908    1.000
    O36      O        0.44910    0.36730    0.15220    1.000
    O37      O        0.25380    0.85650    0.19740    1.000
    O38      O        0.24870    0.87380    0.13360    1.000
    O39      O        0.43500    0.17200    0.21510    1.000
    O40      O        0.41630    0.20160    0.15380    1.000
    O41      O        0.17050    0.82350    0.05710    1.000
    O42      O        0.18940    0.84170    0.99630    1.000
    O43      O        0.02910    0.16270    0.07010    1.000
    O44      O        0.99920    0.15610    0.00860    1.000
    O45      O        0.26760    0.69980    0.94280    1.000
    O46      O        0.33050    0.79180    0.95960    1.000
    O47      O        0.42390    0.68760    0.76490    1.000
    O48      O        0.48840    0.77740    0.78070    1.000
    O49      O        0.18620    0.65320    0.01550    1.000
    O50      O        0.19220    0.66210    0.07880    1.000
    O51      O        0.02610    0.33150    0.09190    1.000
    O52      O        0.01400    0.33600    0.03020    1.000
    O53      O        0.13580    0.76090    0.15010    1.000
    O54      O        0.07380    0.69220    0.18520    1.000
    O55      O        0.85920    0.81090    0.03100    1.000
    O56      O        0.80700    0.72470    0.05930    1.000
    O57      O        0.84030    0.31350    0.04720    1.000
    O58      O        0.88840    0.21760    0.07430    1.000
    O59      O        0.56340    0.27170    0.16520    1.000
    O60      O        0.61570    0.18840    0.19920    1.000
    O61      O        0.92870    0.30860    0.95850    1.000
    O62      O        0.86300    0.21660    0.97110    1.000
    O63      O        0.85660    0.27600    0.76640    1.000
    O64      O        0.77340    0.20160    0.77760    1.000
    C129     C        0.22090    0.15890    0.67700    1.000
    C130     C        0.18300    0.08880    0.67800    1.000
    C131     C        0.47330    0.23150    0.62890    1.000
    C132     C        0.17900    0.05080    0.71160    1.000
    H65      H        0.19980    0.06900    0.73320    1.000
    C133     C        0.14480    0.98600    0.71420    1.000
    H66      H        0.14230    0.96110    0.73710    1.000
    C134     C        0.11370    0.95900    0.68080    1.000
    C135     C        0.11950    0.99580    0.64700    1.000
    H67      H        0.10070    0.97690    0.62500    1.000
    C136     C        0.15270    0.06020    0.64560    1.000
    H68      H        0.15500    0.08510    0.62270    1.000
    C137     C        0.07220    0.89130    0.68300    1.000
    C138     C        0.23540    0.39100    0.66670    1.000
    C139     C        0.19880    0.46260    0.67030    1.000
    C140     C        0.19150    0.50880    0.63950    1.000
    H69      H        0.21120    0.49760    0.61630    1.000
    C141     C        0.15530    0.57100    0.64350    1.000
    H70      H        0.14860    0.60080    0.62260    1.000
    C142     C        0.12860    0.58960    0.67870    1.000
    C143     C        0.13550    0.54460    0.70970    1.000
    H71      H        0.11640    0.55660    0.73300    1.000
    C144     C        0.17070    0.48250    0.70570    1.000
    H72      H        0.17630    0.45250    0.72660    1.000
    C145     C        0.09080    0.65960    0.68280    1.000
    C146     C        0.33340    0.35980    0.52710    1.000
    C147     C        0.36650    0.43330    0.53000    1.000
    C148     C        0.38820    0.46700    0.49700    1.000
    H73      H        0.37950    0.44710    0.47330    1.000
    C149     C        0.42360    0.53150    0.50020    1.000
    H74      H        0.44120    0.55300    0.47850    1.000
    C150     C        0.43230    0.56330    0.53490    1.000
    C151     C        0.40870    0.53320    0.56600    1.000
    H75      H        0.41330    0.55630    0.58940    1.000
    C152     C        0.37580    0.46480    0.56410    1.000
    H76      H        0.36100    0.44240    0.58620    1.000
    C153     C        0.46940    0.63330    0.53880    1.000
    C154     C        0.18530    0.24380    0.43640    1.000
    C155     C        0.15370    0.24300    0.39660    1.000
    C156     C        0.09650    0.28100    0.39170    1.000
    H77      H        0.07680    0.30560    0.41190    1.000
    C157     C        0.06770    0.28210    0.35480    1.000
    H78      H        0.03240    0.31280    0.34920    1.000
    C158     C        0.09360    0.23550    0.32630    1.000
    C159     C        0.14600    0.19460    0.33450    1.000
    H79      H        0.16140    0.16190    0.31650    1.000
    C160     C        0.17810    0.19980    0.36910    1.000
    H80      H        0.21670    0.17330    0.37350    1.000
    C161     C        0.05670    0.23470    0.28840    1.000
    C162     C        0.32580    0.13150    0.54870    1.000
    C163     C        0.36000    0.06060    0.55230    1.000
    C164     C        0.37400    0.02790    0.58910    1.000
    H81      H        0.36030    0.05070    0.61140    1.000
    C165     C        0.40780    0.96270    0.59110    1.000
    H82      H        0.41770    0.94220    0.61460    1.000
    C166     C        0.42550    0.93050    0.55940    1.000
    C167     C        0.41260    0.95830    0.52340    1.000
    H83      H        0.42530    0.93230    0.50190    1.000
    C168     C        0.38140    0.02330    0.51900    1.000
    H84      H        0.37430    0.04260    0.49490    1.000
    C169     C        0.46340    0.85810    0.56170    1.000
    C170     C        0.41770    0.22690    0.65710    1.000
    C171     C        0.53050    0.18750    0.63170    1.000
    H85      H        0.53190    0.15180    0.65020    1.000
    C172     C        0.58340    0.19610    0.60790    1.000
    H86      H        0.61930    0.16440    0.60930    1.000
    C173     C        0.52650    0.29990    0.57710    1.000
    H87      H        0.52600    0.33590    0.55880    1.000
    C174     C        0.47180    0.29030    0.60110    1.000
    H88      H        0.43500    0.32060    0.59950    1.000
    C175     C        0.58450    0.25330    0.58090    1.000
    C176     C        0.64310    0.26430    0.55530    1.000
    C177     C        0.66070    0.76430    0.57150    1.000
    C178     C        0.71890    0.75070    0.59730    1.000
    C179     C        0.72060    0.70070    0.62240    1.000
    H89      H        0.68350    0.67120    0.62550    1.000
    C180     C        0.77830    0.68930    0.64570    1.000
    H90      H        0.78050    0.64950    0.66160    1.000
    C181     C        0.82860    0.73560    0.64460    1.000
    C182     C        0.82880    0.79320    0.61820    1.000
    H91      H        0.86540    0.82380    0.61660    1.000
    C183     C        0.77420    0.80320    0.59520    1.000
    H92      H        0.77210    0.84200    0.57860    1.000
    C184     C        0.88780    0.72930    0.67120    1.000
    C185     C        0.61210    0.76130    0.44890    1.000
    C186     C        0.63590    0.75880    0.40710    1.000
    C187     C        0.68460    0.71540    0.39550    1.000
    H93      H        0.70780    0.68840    0.41340    1.000
    C188     C        0.70190    0.70930    0.35650    1.000
    H94      H        0.73540    0.67830    0.34850    1.000
    C189     C        0.66750    0.75070    0.33140    1.000
    C190     C        0.61730    0.80080    0.34460    1.000
    H95      H        0.59540    0.83120    0.32770    1.000
    C191     C        0.60340    0.80220    0.38160    1.000
    H96      H        0.57080    0.83360    0.39050    1.000
    C192     C        0.68070    0.74170    0.28940    1.000
    Ca5      Ca       0.27774    0.26604    0.60644    1.000
    Cd9      Cd       0.31886    0.27027    0.71112    1.000
    O65      O        0.25200    0.17610    0.70580    1.000
    Ca6      Ca       0.51954    0.72882    0.61684    1.000
    Cd10     Cd       0.24735    0.24205    0.50412    1.000
    O66      O        0.21630    0.19590    0.64730    1.000
    Cd11     Cd       0.56044    0.75470    0.51810    1.000
    O67      O        0.06440    0.86150    0.71540    1.000
    Cd12     Cd       0.99941    0.76570    0.71908    1.000
    O68      O        0.05090    0.86730    0.65220    1.000
    O69      O        0.24620    0.35650    0.69740    1.000
    O70      O        0.25130    0.37380    0.63360    1.000
    O71      O        0.06500    0.67200    0.71510    1.000
    O72      O        0.08370    0.70160    0.65380    1.000
    O73      O        0.32950    0.32350    0.55710    1.000
    O74      O        0.31060    0.34170    0.49630    1.000
    O75      O        0.47090    0.66270    0.57010    1.000
    O76      O        0.50080    0.65610    0.50860    1.000
    O77      O        0.23240    0.19980    0.44280    1.000
    O78      O        0.16950    0.29180    0.45960    1.000
    O79      O        0.07610    0.18760    0.26490    1.000
    O80      O        0.01160    0.27740    0.28070    1.000
    O81      O        0.31380    0.15320    0.51550    1.000
    O82      O        0.30780    0.16210    0.57880    1.000
    O83      O        0.47390    0.83150    0.59190    1.000
    O84      O        0.48600    0.83600    0.53020    1.000
    O85      O        0.36420    0.26090    0.65010    1.000
    O86      O        0.42620    0.19220    0.68520    1.000
    O87      O        0.64080    0.31090    0.53100    1.000
    O88      O        0.69300    0.22470    0.55930    1.000
    O89      O        0.65970    0.81350    0.54720    1.000
    O90      O        0.61160    0.71760    0.57430    1.000
    O91      O        0.93660    0.77170    0.66520    1.000
    O92      O        0.88430    0.68840    0.69920    1.000
    O93      O        0.57130    0.80860    0.45850    1.000
    O94      O        0.63700    0.71660    0.47110    1.000
    O95      O        0.64340    0.77600    0.26640    1.000
    O96      O        0.72660    0.70160    0.27760    1.000
    C193     C        0.77910    0.84110    0.17700    1.000
    C194     C        0.81700    0.91120    0.17800    1.000
    C195     C        0.52670    0.76850    0.12890    1.000
    C196     C        0.82100    0.94920    0.21160    1.000
    H97      H        0.80020    0.93100    0.23320    1.000
    C197     C        0.85520    0.01400    0.21420    1.000
    H98      H        0.85770    0.03890    0.23710    1.000
    C198     C        0.88630    0.04100    0.18080    1.000
    C199     C        0.88050    0.00420    0.14700    1.000
    H99      H        0.89930    0.02310    0.12500    1.000
    C200     C        0.84730    0.93980    0.14560    1.000
    H100     H        0.84500    0.91490    0.12270    1.000
    C201     C        0.92780    0.10870    0.18300    1.000
    C202     C        0.76460    0.60900    0.16670    1.000
    C203     C        0.80120    0.53740    0.17030    1.000
    C204     C        0.80850    0.49120    0.13950    1.000
    H101     H        0.78880    0.50240    0.11630    1.000
    C205     C        0.84470    0.42900    0.14350    1.000
    H102     H        0.85140    0.39920    0.12260    1.000
    C206     C        0.87140    0.41040    0.17870    1.000
    C207     C        0.86450    0.45540    0.20970    1.000
    H103     H        0.88360    0.44340    0.23300    1.000
    C208     C        0.82930    0.51750    0.20570    1.000
    H104     H        0.82370    0.54750    0.22660    1.000
    C209     C        0.90920    0.34040    0.18280    1.000
    C210     C        0.66660    0.64020    0.02710    1.000
    C211     C        0.63350    0.56670    0.03000    1.000
    C212     C        0.61180    0.53300    0.99700    1.000
    H105     H        0.62050    0.55290    0.97330    1.000
    C213     C        0.57640    0.46850    0.00020    1.000
    H106     H        0.55880    0.44700    0.97850    1.000
    C214     C        0.56770    0.43670    0.03490    1.000
    C215     C        0.59130    0.46680    0.06600    1.000
    H107     H        0.58670    0.44370    0.08940    1.000
    C216     C        0.62420    0.53520    0.06410    1.000
    H108     H        0.63900    0.55760    0.08620    1.000
    C217     C        0.53060    0.36670    0.03880    1.000
    C218     C        0.81470    0.75620    0.93640    1.000
    C219     C        0.84630    0.75700    0.89660    1.000
    C220     C        0.90350    0.71900    0.89170    1.000
    H109     H        0.92320    0.69440    0.91190    1.000
    C221     C        0.93230    0.71790    0.85480    1.000
    H110     H        0.96760    0.68720    0.84920    1.000
    C222     C        0.90640    0.76450    0.82630    1.000
    C223     C        0.85400    0.80540    0.83450    1.000
    H111     H        0.83860    0.83810    0.81650    1.000
    C224     C        0.82190    0.80020    0.86910    1.000
    H112     H        0.78330    0.82670    0.87350    1.000
    C225     C        0.94330    0.76530    0.78840    1.000
    C226     C        0.67420    0.86850    0.04870    1.000
    C227     C        0.64000    0.93940    0.05230    1.000
    C228     C        0.62600    0.97210    0.08910    1.000
    H113     H        0.63970    0.94930    0.11140    1.000
    C229     C        0.59220    0.03730    0.09110    1.000
    H114     H        0.58230    0.05780    0.11460    1.000
    C230     C        0.57450    0.06950    0.05940    1.000
    C231     C        0.58740    0.04170    0.02340    1.000
    H115     H        0.57470    0.06770    0.00190    1.000
    C232     C        0.61860    0.97670    0.01900    1.000
    H116     H        0.62570    0.95740    0.99490    1.000
    C233     C        0.53660    0.14190    0.06170    1.000
    C234     C        0.58230    0.77310    0.15710    1.000
    C235     C        0.46950    0.81250    0.13170    1.000
    H117     H        0.46810    0.84820    0.15020    1.000
    C236     C        0.41660    0.80390    0.10790    1.000
    H118     H        0.38070    0.83560    0.10930    1.000
    C237     C        0.47350    0.70010    0.07710    1.000
    H119     H        0.47400    0.66410    0.05880    1.000
    C238     C        0.52820    0.70970    0.10110    1.000
    H120     H        0.56500    0.67940    0.09950    1.000
    C239     C        0.41550    0.74670    0.08090    1.000
    C240     C        0.35690    0.73570    0.05530    1.000
    C241     C        0.33930    0.23570    0.07150    1.000
    C242     C        0.28110    0.24930    0.09730    1.000
    C243     C        0.27940    0.29930    0.12240    1.000
    H121     H        0.31650    0.32880    0.12550    1.000
    C244     C        0.22170    0.31070    0.14570    1.000
    H122     H        0.21950    0.35050    0.16160    1.000
    C245     C        0.17140    0.26440    0.14460    1.000
    C246     C        0.17120    0.20680    0.11820    1.000
    H123     H        0.13460    0.17620    0.11660    1.000
    C247     C        0.22580    0.19680    0.09520    1.000
    H124     H        0.22790    0.15800    0.07860    1.000
    C248     C        0.11220    0.27070    0.17120    1.000
    C249     C        0.38790    0.23870    0.94890    1.000
    C250     C        0.36410    0.24120    0.90710    1.000
    C251     C        0.31540    0.28460    0.89550    1.000
    H125     H        0.29220    0.31160    0.91340    1.000
    C252     C        0.29810    0.29070    0.85650    1.000
    H126     H        0.26460    0.32170    0.84850    1.000
    C253     C        0.33250    0.24930    0.83140    1.000
    C254     C        0.38270    0.19920    0.84460    1.000
    H127     H        0.40460    0.16880    0.82770    1.000
    C255     C        0.39660    0.19780    0.88160    1.000
    H128     H        0.42920    0.16640    0.89050    1.000
    C256     C        0.31930    0.25830    0.78940    1.000
    Ca7      Ca       0.72226    0.73396    0.10644    1.000
    Cd13     Cd       0.68114    0.72973    0.21112    1.000
    O97      O        0.74800    0.82390    0.20580    1.000
    Ca8      Ca       0.48046    0.27118    0.11684    1.000
    Cd14     Cd       0.75265    0.75795    0.00412    1.000
    O98      O        0.78370    0.80410    0.14730    1.000
    Cd15     Cd       0.43956    0.24530    0.01810    1.000
    O99      O        0.93560    0.13850    0.21540    1.000
    Cd16     Cd       0.00059    0.23430    0.21908    1.000
    O100     O        0.94910    0.13270    0.15220    1.000
    O101     O        0.75380    0.64350    0.19740    1.000
    O102     O        0.74870    0.62620    0.13360    1.000
    O103     O        0.93500    0.32800    0.21510    1.000
    O104     O        0.91630    0.29840    0.15380    1.000
    O105     O        0.67050    0.67650    0.05710    1.000
    O106     O        0.68940    0.65830    0.99630    1.000
    O107     O        0.52910    0.33730    0.07010    1.000
    O108     O        0.49920    0.34390    0.00860    1.000
    O109     O        0.76760    0.80020    0.94280    1.000
    O110     O        0.83050    0.70820    0.95960    1.000
    O111     O        0.92390    0.81240    0.76490    1.000
    O112     O        0.98840    0.72260    0.78070    1.000
    O113     O        0.68620    0.84680    0.01550    1.000
    O114     O        0.69220    0.83790    0.07880    1.000
    O115     O        0.52610    0.16850    0.09190    1.000
    O116     O        0.51400    0.16400    0.03020    1.000
    O117     O        0.63580    0.73910    0.15010    1.000
    O118     O        0.57380    0.80780    0.18520    1.000
    O119     O        0.35920    0.68910    0.03100    1.000
    O120     O        0.30700    0.77530    0.05930    1.000
    O121     O        0.34030    0.18650    0.04720    1.000
    O122     O        0.38840    0.28240    0.07430    1.000
    O123     O        0.06340    0.22830    0.16520    1.000
    O124     O        0.11570    0.31160    0.19920    1.000
    O125     O        0.42870    0.19140    0.95850    1.000
    O126     O        0.36300    0.28340    0.97110    1.000
    O127     O        0.35660    0.22400    0.76640    1.000
    O128     O        0.27340    0.29840    0.77760    1.000
