# CIF file generated by openbabel 3.1.0, see https://openbabel.org
data_I
_chemical_name_common 'WUPNIF_clean'
_cell_length_a 11.2622
_cell_length_b 13.2348
_cell_length_c 13.2348
_cell_angle_alpha 101.488
_cell_angle_beta 106.743
_cell_angle_gamma 73.2566
_space_group_name_H-M_alt 'P 1'
_space_group_name_Hall 'P 1'
loop_
    _symmetry_equiv_pos_as_xyz
    x,y,z
loop_
    _atom_site_label
    _atom_site_type_symbol
    _atom_site_fract_x
    _atom_site_fract_y
    _atom_site_fract_z
    _atom_site_occupancy
    Na1      Na       0.71190    0.68610    0.35090    1.000
    Na2      Na       0.78810    0.35090    0.68610    1.000
    Na3      Na       0.28810    0.31390    0.64910    1.000
    Na4      Na       0.21190    0.64910    0.31390    1.000
    Na5      Na       0.75000    0.32050    0.32050    1.000
    Na6      Na       0.25000    0.67950    0.67950    1.000
    Zn1      Zn       0.46046    0.86093    0.16779    1.000
    Zn2      Zn       0.03954    0.16779    0.86093    1.000
    Zn3      Zn       0.53954    0.13907    0.83221    1.000
    Zn4      Zn       0.96046    0.83221    0.13907    1.000
    Zn5      Zn       0.25000    0.88753    0.88753    1.000
    Zn6      Zn       0.25000    0.07555    0.07555    1.000
    Zn7      Zn       0.75000    0.11247    0.11247    1.000
    Zn8      Zn       0.75000    0.92445    0.92445    1.000
    Cu1      Cu       0.50000    0.00000    0.00000    1.000
    Cu2      Cu       0.00000    0.00000    0.00000    1.000
    H1       H        0.12610    0.48280    0.00940    1.000
    H2       H        0.55980    0.45260    0.13720    1.000
    H3       H        0.37390    0.00940    0.48280    1.000
    H4       H        0.94020    0.13720    0.45260    1.000
    H5       H        0.87390    0.51720    0.99060    1.000
    H6       H        0.44020    0.54740    0.86280    1.000
    H7       H        0.62610    0.99060    0.51720    1.000
    H8       H        0.05980    0.86280    0.54740    1.000
    C1       C        0.38830    0.56000    0.10960    1.000
    C2       C        0.25780    0.56910    0.06870    1.000
    C3       C        0.21350    0.47690    0.03550    1.000
    C4       C        0.29550    0.37740    0.04040    1.000
    C5       C        0.42800    0.36840    0.07620    1.000
    C6       C        0.47230    0.45870    0.11150    1.000
    C7       C        0.44400    0.65500    0.14960    1.000
    C8       C        0.15870    0.67260    0.06000    1.000
    C9       C        0.23980    0.28190    0.01570    1.000
    C10      C        0.51990    0.26120    0.06900    1.000
    C11      C        0.11170    0.10960    0.56000    1.000
    C12      C        0.24220    0.06870    0.56910    1.000
    C13      C        0.28650    0.03550    0.47690    1.000
    C14      C        0.20450    0.04040    0.37740    1.000
    C15      C        0.07200    0.07620    0.36840    1.000
    C16      C        0.02770    0.11150    0.45870    1.000
    C17      C        0.05600    0.14960    0.65500    1.000
    C18      C        0.34130    0.06000    0.67260    1.000
    C19      C        0.26020    0.01570    0.28190    1.000
    C20      C        0.98010    0.06900    0.26120    1.000
    C21      C        0.61170    0.44000    0.89040    1.000
    C22      C        0.74220    0.43090    0.93130    1.000
    C23      C        0.78650    0.52310    0.96450    1.000
    C24      C        0.70450    0.62260    0.95960    1.000
    C25      C        0.57200    0.63160    0.92380    1.000
    C26      C        0.52770    0.54130    0.88850    1.000
    C27      C        0.55600    0.34500    0.85040    1.000
    C28      C        0.84130    0.32740    0.94000    1.000
    C29      C        0.76020    0.71810    0.98430    1.000
    C30      C        0.48010    0.73880    0.93100    1.000
    C31      C        0.88830    0.89040    0.44000    1.000
    C32      C        0.75780    0.93130    0.43090    1.000
    C33      C        0.71350    0.96450    0.52310    1.000
    C34      C        0.79550    0.95960    0.62260    1.000
    C35      C        0.92800    0.92380    0.63160    1.000
    C36      C        0.97230    0.88850    0.54130    1.000
    C37      C        0.94400    0.85040    0.34500    1.000
    C38      C        0.65870    0.94000    0.32740    1.000
    C39      C        0.73980    0.98430    0.71810    1.000
    C40      C        0.01990    0.93100    0.73880    1.000
    O1       O        0.55160    0.64410    0.20990    1.000
    O2       O        0.37670    0.74330    0.11850    1.000
    O3       O        0.12520    0.72150    0.14450    1.000
    O4       O        0.10970    0.69930    0.96950    1.000
    O5       O        0.16080    0.27070    0.92850    1.000
    O6       O        0.27510    0.22427    0.08873    1.000
    O7       O        0.48890    0.19060    0.99560    1.000
    O8       O        0.62620    0.24860    0.13760    1.000
    O9       O        0.43780    0.00267    0.12193    1.000
    O10      O        0.31640    0.01573    0.92187    1.000
    O11      O        0.94840    0.20990    0.64410    1.000
    O12      O        0.12330    0.11850    0.74330    1.000
    O13      O        0.37480    0.14450    0.72150    1.000
    O14      O        0.39030    0.96950    0.69930    1.000
    O15      O        0.33920    0.92850    0.27070    1.000
    O16      O        0.22490    0.08873    0.22427    1.000
    O17      O        0.01110    0.99560    0.19060    1.000
    O18      O        0.87380    0.13760    0.24860    1.000
    O19      O        0.06220    0.12193    0.00267    1.000
    O20      O        0.18360    0.92187    0.01573    1.000
    O21      O        0.44840    0.35590    0.79010    1.000
    O22      O        0.62330    0.25670    0.88150    1.000
    O23      O        0.87480    0.27850    0.85550    1.000
    O24      O        0.89030    0.30070    0.03050    1.000
    O25      O        0.83920    0.72930    0.07150    1.000
    O26      O        0.72490    0.77573    0.91127    1.000
    O27      O        0.51110    0.80940    0.00440    1.000
    O28      O        0.37380    0.75140    0.86240    1.000
    O29      O        0.56220    0.99733    0.87807    1.000
    O30      O        0.68360    0.98427    0.07813    1.000
    O31      O        0.05160    0.79010    0.35590    1.000
    O32      O        0.87670    0.88150    0.25670    1.000
    O33      O        0.62520    0.85550    0.27850    1.000
    O34      O        0.60970    0.03050    0.30070    1.000
    O35      O        0.66080    0.07150    0.72930    1.000
    O36      O        0.77510    0.91127    0.77573    1.000
    O37      O        0.98890    0.00440    0.80940    1.000
    O38      O        0.12620    0.86240    0.75140    1.000
    O39      O        0.93780    0.87807    0.99733    1.000
    O40      O        0.81640    0.07813    0.98427    1.000
