# CIF file generated by openbabel 3.1.0, see https://openbabel.org
data_I
_chemical_name_common 'image0'
_cell_length_a 28.568
_cell_length_b 20.467
_cell_length_c 18.171
_cell_angle_alpha 90
_cell_angle_beta 104.043
_cell_angle_gamma 90
_space_group_name_H-M_alt 'P 1'
_space_group_name_Hall 'P 1'
loop_
    _symmetry_equiv_pos_as_xyz
    x,y,z
loop_
    _atom_site_label
    _atom_site_type_symbol
    _atom_site_fract_x
    _atom_site_fract_y
    _atom_site_fract_z
    _atom_site_occupancy
    Sm1      Sm       0.68539    0.77936    0.01708    1.000
    C1       C        0.41149    0.74042    0.54637    1.000
    C2       C        0.46094    0.71546    0.58623    1.000
    C3       C        0.49439    0.75580    0.63000    1.000
    H1       H        0.48630    0.79910    0.63640    1.000
    C4       C        0.54046    0.73330    0.66550    1.000
    H2       H        0.56290    0.76220    0.69390    1.000
    C5       C        0.55313    0.66943    0.65912    1.000
    C6       C        0.51868    0.62710    0.61770    1.000
    H3       H        0.52630    0.58330    0.61360    1.000
    C7       C        0.47291    0.64960    0.58220    1.000
    H4       H        0.45000    0.62050    0.55550    1.000
    C8       C        0.70402    0.68960    0.86725    1.000
    C9       C        0.67616    0.65632    0.79486    1.000
    C10      C        0.62920    0.67555    0.76266    1.000
    H5       H        0.61520    0.70850    0.78540    1.000
    C11      C        0.60262    0.64609    0.69638    1.000
    C12      C        0.62447    0.59592    0.66524    1.000
    H6       H        0.60720    0.57560    0.62120    1.000
    C13      C        0.67139    0.57504    0.69784    1.000
    C14      C        0.69694    0.60690    0.76248    1.000
    H7       H        0.72860    0.59470    0.78430    1.000
    C15      C        0.75903    0.36515    0.56411    1.000
    C16      C        0.73562    0.41878    0.59937    1.000
    C17      C        0.76288    0.47192    0.63198    1.000
    H8       H        0.79540    0.47400    0.63230    1.000
    C18      C        0.74204    0.52193    0.66407    1.000
    H9       H        0.76100    0.55690    0.68660    1.000
    C19      C        0.69339    0.52104    0.66333    1.000
    C20      C        0.66665    0.46797    0.63008    1.000
    H10      H        0.63400    0.46610    0.62910    1.000
    C21      C        0.68722    0.41732    0.59811    1.000
    H11      H        0.66830    0.38230    0.57580    1.000
    O1       O        0.68140    0.72953    0.89674    1.000
    O2       O        0.74786    0.67501    0.89013    1.000
    O3       O        0.80063    0.37349    0.55639    1.000
    O4       O        0.73585    0.31367    0.54277    1.000
    O5       O        0.39879    0.79597    0.56117    1.000
    O6       O        0.38413    0.70388    0.50054    1.000
    C22      C        0.48260    0.73500    0.65820    1.000
    H12      H        0.46690    0.76420    0.68320    1.000
    C23      C        0.52740    0.71170    0.69390    1.000
    H13      H        0.54100    0.72490    0.74350    1.000
    C24      C        0.53090    0.65500    0.58070    1.000
    H14      H        0.54730    0.62950    0.55280    1.000
    C25      C        0.48640    0.67810    0.54730    1.000
    H15      H        0.47290    0.66840    0.49660    1.000
    Sm2      Sm       0.18539    0.27936    0.01708    1.000
    C26      C        0.91149    0.24042    0.54637    1.000
    C27      C        0.96094    0.21546    0.58623    1.000
    C28      C        0.99439    0.25580    0.63000    1.000
    H16      H        0.98630    0.29910    0.63640    1.000
    C29      C        0.04046    0.23330    0.66550    1.000
    H17      H        0.06290    0.26220    0.69390    1.000
    C30      C        0.05313    0.16943    0.65912    1.000
    C31      C        0.01868    0.12710    0.61770    1.000
    H18      H        0.02630    0.08330    0.61360    1.000
    C32      C        0.97291    0.14960    0.58220    1.000
    H19      H        0.95000    0.12050    0.55550    1.000
    C33      C        0.20402    0.18960    0.86725    1.000
    C34      C        0.17616    0.15632    0.79486    1.000
    C35      C        0.12920    0.17555    0.76266    1.000
    H20      H        0.11520    0.20850    0.78540    1.000
    C36      C        0.10262    0.14609    0.69638    1.000
    C37      C        0.12447    0.09592    0.66524    1.000
    H21      H        0.10720    0.07560    0.62120    1.000
    C38      C        0.17139    0.07504    0.69784    1.000
    C39      C        0.19694    0.10690    0.76248    1.000
    H22      H        0.22860    0.09470    0.78430    1.000
    C40      C        0.25903    0.86515    0.56411    1.000
    C41      C        0.23562    0.91878    0.59937    1.000
    C42      C        0.26288    0.97192    0.63198    1.000
    H23      H        0.29540    0.97400    0.63230    1.000
    C43      C        0.24204    0.02193    0.66407    1.000
    H24      H        0.26100    0.05690    0.68660    1.000
    C44      C        0.19339    0.02104    0.66333    1.000
    C45      C        0.16665    0.96797    0.63008    1.000
    H25      H        0.13400    0.96610    0.62910    1.000
    C46      C        0.18722    0.91732    0.59811    1.000
    H26      H        0.16830    0.88230    0.57580    1.000
    O7       O        0.18140    0.22953    0.89674    1.000
    O8       O        0.24786    0.17501    0.89013    1.000
    O9       O        0.30063    0.87349    0.55639    1.000
    O10      O        0.23585    0.81367    0.54277    1.000
    O11      O        0.89879    0.29597    0.56117    1.000
    O12      O        0.88413    0.20388    0.50054    1.000
    C47      C        0.98260    0.23500    0.65820    1.000
    H27      H        0.96690    0.26420    0.68320    1.000
    C48      C        0.02740    0.21170    0.69390    1.000
    H28      H        0.04100    0.22490    0.74350    1.000
    C49      C        0.03090    0.15500    0.58070    1.000
    H29      H        0.04730    0.12950    0.55280    1.000
    C50      C        0.98640    0.17810    0.54730    1.000
    H30      H        0.97290    0.16840    0.49660    1.000
    Sm3      Sm       0.31461    0.77936    0.48292    1.000
    C51      C        0.58851    0.74042    0.95363    1.000
    C52      C        0.53906    0.71546    0.91377    1.000
    C53      C        0.50561    0.75580    0.87000    1.000
    H31      H        0.51370    0.79910    0.86360    1.000
    C54      C        0.45954    0.73330    0.83450    1.000
    H32      H        0.43710    0.76220    0.80610    1.000
    C55      C        0.44687    0.66943    0.84088    1.000
    C56      C        0.48132    0.62710    0.88230    1.000
    H33      H        0.47370    0.58330    0.88640    1.000
    C57      C        0.52709    0.64960    0.91780    1.000
    H34      H        0.55000    0.62050    0.94450    1.000
    C58      C        0.29598    0.68960    0.63275    1.000
    C59      C        0.32384    0.65632    0.70514    1.000
    C60      C        0.37080    0.67555    0.73734    1.000
    H35      H        0.38480    0.70850    0.71460    1.000
    C61      C        0.39738    0.64609    0.80362    1.000
    C62      C        0.37553    0.59592    0.83476    1.000
    H36      H        0.39280    0.57560    0.87880    1.000
    C63      C        0.32861    0.57504    0.80216    1.000
    C64      C        0.30306    0.60690    0.73752    1.000
    H37      H        0.27140    0.59470    0.71570    1.000
    C65      C        0.24097    0.36515    0.93589    1.000
    C66      C        0.26438    0.41878    0.90063    1.000
    C67      C        0.23712    0.47192    0.86802    1.000
    H38      H        0.20460    0.47400    0.86770    1.000
    C68      C        0.25796    0.52193    0.83593    1.000
    H39      H        0.23900    0.55690    0.81340    1.000
    C69      C        0.30661    0.52104    0.83667    1.000
    C70      C        0.33335    0.46797    0.86992    1.000
    H40      H        0.36600    0.46610    0.87090    1.000
    C71      C        0.31278    0.41732    0.90189    1.000
    H41      H        0.33170    0.38230    0.92420    1.000
    O13      O        0.31860    0.72953    0.60326    1.000
    O14      O        0.25214    0.67501    0.60987    1.000
    O15      O        0.19937    0.37349    0.94361    1.000
    O16      O        0.26415    0.31367    0.95723    1.000
    O17      O        0.60121    0.79597    0.93883    1.000
    O18      O        0.61587    0.70388    0.99946    1.000
    C72      C        0.51740    0.73500    0.84180    1.000
    H42      H        0.53310    0.76420    0.81680    1.000
    C73      C        0.47260    0.71170    0.80610    1.000
    H43      H        0.45900    0.72490    0.75650    1.000
    C74      C        0.46910    0.65500    0.91930    1.000
    H44      H        0.45270    0.62950    0.94720    1.000
    C75      C        0.51360    0.67810    0.95270    1.000
    H45      H        0.52710    0.66840    0.00340    1.000
    Sm4      Sm       0.81461    0.27936    0.48292    1.000
    C76      C        0.08851    0.24042    0.95363    1.000
    C77      C        0.03906    0.21546    0.91377    1.000
    C78      C        0.00561    0.25580    0.87000    1.000
    H46      H        0.01370    0.29910    0.86360    1.000
    C79      C        0.95954    0.23330    0.83450    1.000
    H47      H        0.93710    0.26220    0.80610    1.000
    C80      C        0.94687    0.16943    0.84088    1.000
    C81      C        0.98132    0.12710    0.88230    1.000
    H48      H        0.97370    0.08330    0.88640    1.000
    C82      C        0.02709    0.14960    0.91780    1.000
    H49      H        0.05000    0.12050    0.94450    1.000
    C83      C        0.79598    0.18960    0.63275    1.000
    C84      C        0.82384    0.15632    0.70514    1.000
    C85      C        0.87080    0.17555    0.73734    1.000
    H50      H        0.88480    0.20850    0.71460    1.000
    C86      C        0.89738    0.14609    0.80362    1.000
    C87      C        0.87553    0.09592    0.83476    1.000
    H51      H        0.89280    0.07560    0.87880    1.000
    C88      C        0.82861    0.07504    0.80216    1.000
    C89      C        0.80306    0.10690    0.73752    1.000
    H52      H        0.77140    0.09470    0.71570    1.000
    C90      C        0.74097    0.86515    0.93589    1.000
    C91      C        0.76438    0.91878    0.90063    1.000
    C92      C        0.73712    0.97192    0.86802    1.000
    H53      H        0.70460    0.97400    0.86770    1.000
    C93      C        0.75796    0.02193    0.83593    1.000
    H54      H        0.73900    0.05690    0.81340    1.000
    C94      C        0.80661    0.02104    0.83667    1.000
    C95      C        0.83335    0.96797    0.86992    1.000
    H55      H        0.86600    0.96610    0.87090    1.000
    C96      C        0.81278    0.91732    0.90189    1.000
    H56      H        0.83170    0.88230    0.92420    1.000
    O19      O        0.81860    0.22953    0.60326    1.000
    O20      O        0.75214    0.17501    0.60987    1.000
    O21      O        0.69937    0.87349    0.94361    1.000
    O22      O        0.76415    0.81367    0.95723    1.000
    O23      O        0.10121    0.29597    0.93883    1.000
    O24      O        0.11587    0.20388    0.99946    1.000
    C97      C        0.01740    0.23500    0.84180    1.000
    H57      H        0.03310    0.26420    0.81680    1.000
    C98      C        0.97260    0.21170    0.80610    1.000
    H58      H        0.95900    0.22490    0.75650    1.000
    C99      C        0.96910    0.15500    0.91930    1.000
    H59      H        0.95270    0.12950    0.94720    1.000
    C100     C        0.01360    0.17810    0.95270    1.000
    H60      H        0.02710    0.16840    0.00340    1.000
    Sm5      Sm       0.31461    0.22064    0.98292    1.000
    C101     C        0.58851    0.25958    0.45363    1.000
    C102     C        0.53906    0.28454    0.41377    1.000
    C103     C        0.50561    0.24420    0.37000    1.000
    H61      H        0.51370    0.20090    0.36360    1.000
    C104     C        0.45954    0.26670    0.33450    1.000
    H62      H        0.43710    0.23780    0.30610    1.000
    C105     C        0.44687    0.33057    0.34088    1.000
    C106     C        0.48132    0.37290    0.38230    1.000
    H63      H        0.47370    0.41670    0.38640    1.000
    C107     C        0.52709    0.35040    0.41780    1.000
    H64      H        0.55000    0.37950    0.44450    1.000
    C108     C        0.29598    0.31040    0.13275    1.000
    C109     C        0.32384    0.34368    0.20514    1.000
    C110     C        0.37080    0.32445    0.23734    1.000
    H65      H        0.38480    0.29150    0.21460    1.000
    C111     C        0.39738    0.35391    0.30362    1.000
    C112     C        0.37553    0.40408    0.33476    1.000
    H66      H        0.39280    0.42440    0.37880    1.000
    C113     C        0.32861    0.42496    0.30216    1.000
    C114     C        0.30306    0.39310    0.23752    1.000
    H67      H        0.27140    0.40530    0.21570    1.000
    C115     C        0.24097    0.63485    0.43589    1.000
    C116     C        0.26438    0.58122    0.40063    1.000
    C117     C        0.23712    0.52808    0.36802    1.000
    H68      H        0.20460    0.52600    0.36770    1.000
    C118     C        0.25796    0.47807    0.33593    1.000
    H69      H        0.23900    0.44310    0.31340    1.000
    C119     C        0.30661    0.47896    0.33667    1.000
    C120     C        0.33335    0.53203    0.36992    1.000
    H70      H        0.36600    0.53390    0.37090    1.000
    C121     C        0.31278    0.58268    0.40189    1.000
    H71      H        0.33170    0.61770    0.42420    1.000
    O25      O        0.31860    0.27047    0.10326    1.000
    O26      O        0.25214    0.32499    0.10987    1.000
    O27      O        0.19937    0.62651    0.44361    1.000
    O28      O        0.26415    0.68633    0.45723    1.000
    O29      O        0.60121    0.20403    0.43883    1.000
    O30      O        0.61587    0.29612    0.49946    1.000
    C122     C        0.51740    0.26500    0.34180    1.000
    H72      H        0.53310    0.23580    0.31680    1.000
    C123     C        0.47260    0.28830    0.30610    1.000
    H73      H        0.45900    0.27510    0.25650    1.000
    C124     C        0.46910    0.34500    0.41930    1.000
    H74      H        0.45270    0.37050    0.44720    1.000
    C125     C        0.51360    0.32190    0.45270    1.000
    H75      H        0.52710    0.33160    0.50340    1.000
    Sm6      Sm       0.81461    0.72064    0.98292    1.000
    C126     C        0.08851    0.75958    0.45363    1.000
    C127     C        0.03906    0.78454    0.41377    1.000
    C128     C        0.00561    0.74420    0.37000    1.000
    H76      H        0.01370    0.70090    0.36360    1.000
    C129     C        0.95954    0.76670    0.33450    1.000
    H77      H        0.93710    0.73780    0.30610    1.000
    C130     C        0.94687    0.83057    0.34088    1.000
    C131     C        0.98132    0.87290    0.38230    1.000
    H78      H        0.97370    0.91670    0.38640    1.000
    C132     C        0.02709    0.85040    0.41780    1.000
    H79      H        0.05000    0.87950    0.44450    1.000
    C133     C        0.79598    0.81040    0.13275    1.000
    C134     C        0.82384    0.84368    0.20514    1.000
    C135     C        0.87080    0.82445    0.23734    1.000
    H80      H        0.88480    0.79150    0.21460    1.000
    C136     C        0.89738    0.85391    0.30362    1.000
    C137     C        0.87553    0.90408    0.33476    1.000
    H81      H        0.89280    0.92440    0.37880    1.000
    C138     C        0.82861    0.92496    0.30216    1.000
    C139     C        0.80306    0.89310    0.23752    1.000
    H82      H        0.77140    0.90530    0.21570    1.000
    C140     C        0.74097    0.13485    0.43589    1.000
    C141     C        0.76438    0.08122    0.40063    1.000
    C142     C        0.73712    0.02808    0.36802    1.000
    H83      H        0.70460    0.02600    0.36770    1.000
    C143     C        0.75796    0.97807    0.33593    1.000
    H84      H        0.73900    0.94310    0.31340    1.000
    C144     C        0.80661    0.97896    0.33667    1.000
    C145     C        0.83335    0.03203    0.36992    1.000
    H85      H        0.86600    0.03390    0.37090    1.000
    C146     C        0.81278    0.08268    0.40189    1.000
    H86      H        0.83170    0.11770    0.42420    1.000
    O31      O        0.81860    0.77047    0.10326    1.000
    O32      O        0.75214    0.82499    0.10987    1.000
    O33      O        0.69937    0.12651    0.44361    1.000
    O34      O        0.76415    0.18633    0.45723    1.000
    O35      O        0.10121    0.70403    0.43883    1.000
    O36      O        0.11587    0.79612    0.49946    1.000
    C147     C        0.01740    0.76500    0.34180    1.000
    H87      H        0.03310    0.73580    0.31680    1.000
    C148     C        0.97260    0.78830    0.30610    1.000
    H88      H        0.95900    0.77510    0.25650    1.000
    C149     C        0.96910    0.84500    0.41930    1.000
    H89      H        0.95270    0.87050    0.44720    1.000
    C150     C        0.01360    0.82190    0.45270    1.000
    H90      H        0.02710    0.83160    0.50340    1.000
    Sm7      Sm       0.68539    0.22064    0.51708    1.000
    C151     C        0.41149    0.25958    0.04637    1.000
    C152     C        0.46094    0.28454    0.08623    1.000
    C153     C        0.49439    0.24420    0.13000    1.000
    H91      H        0.48630    0.20090    0.13640    1.000
    C154     C        0.54046    0.26670    0.16550    1.000
    H92      H        0.56290    0.23780    0.19390    1.000
    C155     C        0.55313    0.33057    0.15912    1.000
    C156     C        0.51868    0.37290    0.11770    1.000
    H93      H        0.52630    0.41670    0.11360    1.000
    C157     C        0.47291    0.35040    0.08220    1.000
    H94      H        0.45000    0.37950    0.05550    1.000
    C158     C        0.70402    0.31040    0.36725    1.000
    C159     C        0.67616    0.34368    0.29486    1.000
    C160     C        0.62920    0.32445    0.26266    1.000
    H95      H        0.61520    0.29150    0.28540    1.000
    C161     C        0.60262    0.35391    0.19638    1.000
    C162     C        0.62447    0.40408    0.16524    1.000
    H96      H        0.60720    0.42440    0.12120    1.000
    C163     C        0.67139    0.42496    0.19784    1.000
    C164     C        0.69694    0.39310    0.26248    1.000
    H97      H        0.72860    0.40530    0.28430    1.000
    C165     C        0.75903    0.63485    0.06411    1.000
    C166     C        0.73562    0.58122    0.09937    1.000
    C167     C        0.76288    0.52808    0.13198    1.000
    H98      H        0.79540    0.52600    0.13230    1.000
    C168     C        0.74204    0.47807    0.16407    1.000
    H99      H        0.76100    0.44310    0.18660    1.000
    C169     C        0.69339    0.47896    0.16333    1.000
    C170     C        0.66665    0.53203    0.13008    1.000
    H100     H        0.63400    0.53390    0.12910    1.000
    C171     C        0.68722    0.58268    0.09811    1.000
    H101     H        0.66830    0.61770    0.07580    1.000
    O37      O        0.68140    0.27047    0.39674    1.000
    O38      O        0.74786    0.32499    0.39013    1.000
    O39      O        0.80063    0.62651    0.05639    1.000
    O40      O        0.73585    0.68633    0.04277    1.000
    O41      O        0.39879    0.20403    0.06117    1.000
    O42      O        0.38413    0.29612    0.00054    1.000
    C172     C        0.48260    0.26500    0.15820    1.000
    H102     H        0.46690    0.23580    0.18320    1.000
    C173     C        0.52740    0.28830    0.19390    1.000
    H103     H        0.54100    0.27510    0.24350    1.000
    C174     C        0.53090    0.34500    0.08070    1.000
    H104     H        0.54730    0.37050    0.05280    1.000
    C175     C        0.48640    0.32190    0.04730    1.000
    H105     H        0.47290    0.33160    0.99660    1.000
    Sm8      Sm       0.18539    0.72064    0.51708    1.000
    C176     C        0.91149    0.75958    0.04637    1.000
    C177     C        0.96094    0.78454    0.08623    1.000
    C178     C        0.99439    0.74420    0.13000    1.000
    H106     H        0.98630    0.70090    0.13640    1.000
    C179     C        0.04046    0.76670    0.16550    1.000
    H107     H        0.06290    0.73780    0.19390    1.000
    C180     C        0.05313    0.83057    0.15912    1.000
    C181     C        0.01868    0.87290    0.11770    1.000
    H108     H        0.02630    0.91670    0.11360    1.000
    C182     C        0.97291    0.85040    0.08220    1.000
    H109     H        0.95000    0.87950    0.05550    1.000
    C183     C        0.20402    0.81040    0.36725    1.000
    C184     C        0.17616    0.84368    0.29486    1.000
    C185     C        0.12920    0.82445    0.26266    1.000
    H110     H        0.11520    0.79150    0.28540    1.000
    C186     C        0.10262    0.85391    0.19638    1.000
    C187     C        0.12447    0.90408    0.16524    1.000
    H111     H        0.10720    0.92440    0.12120    1.000
    C188     C        0.17139    0.92496    0.19784    1.000
    C189     C        0.19694    0.89310    0.26248    1.000
    H112     H        0.22860    0.90530    0.28430    1.000
    C190     C        0.25903    0.13485    0.06411    1.000
    C191     C        0.23562    0.08122    0.09937    1.000
    C192     C        0.26288    0.02808    0.13198    1.000
    H113     H        0.29540    0.02600    0.13230    1.000
    C193     C        0.24204    0.97807    0.16407    1.000
    H114     H        0.26100    0.94310    0.18660    1.000
    C194     C        0.19339    0.97896    0.16333    1.000
    C195     C        0.16665    0.03203    0.13008    1.000
    H115     H        0.13400    0.03390    0.12910    1.000
    C196     C        0.18722    0.08268    0.09811    1.000
    H116     H        0.16830    0.11770    0.07580    1.000
    O43      O        0.18140    0.77047    0.39674    1.000
    O44      O        0.24786    0.82499    0.39013    1.000
    O45      O        0.30063    0.12651    0.05639    1.000
    O46      O        0.23585    0.18633    0.04277    1.000
    O47      O        0.89879    0.70403    0.06117    1.000
    O48      O        0.88413    0.79612    0.00054    1.000
    C197     C        0.98260    0.76500    0.15820    1.000
    H117     H        0.96690    0.73580    0.18320    1.000
    C198     C        0.02740    0.78830    0.19390    1.000
    H118     H        0.04100    0.77510    0.24350    1.000
    C199     C        0.03090    0.84500    0.08070    1.000
    H119     H        0.04730    0.87050    0.05280    1.000
    C200     C        0.98640    0.82190    0.04730    1.000
    H120     H        0.97290    0.83160    0.99660    1.000
