# CIF file generated by openbabel 3.1.0, see https://openbabel.org
data_I
_chemical_name_common 'ADABIS_clean'
_cell_length_a 9.2553
_cell_length_b 9.3537
_cell_length_c 13.8735
_cell_angle_alpha 109.701
_cell_angle_beta 101.758
_cell_angle_gamma 90
_space_group_name_H-M_alt 'P 1'
_space_group_name_Hall 'P 1'
loop_
    _symmetry_equiv_pos_as_xyz
    x,y,z
loop_
    _atom_site_label
    _atom_site_type_symbol
    _atom_site_fract_x
    _atom_site_fract_y
    _atom_site_fract_z
    _atom_site_occupancy
    Cu1      Cu       0.03860    0.02030    0.38460    1.000
    Cu2      Cu       0.46140    0.63570    0.61540    1.000
    Cu3      Cu       0.96140    0.97970    0.61540    1.000
    Cu4      Cu       0.53860    0.36430    0.38460    1.000
    H1       H        0.82334    0.93081    0.18072    1.000
    H2       H        0.68184    0.72310    0.04864    1.000
    H3       H        0.81792    0.46746    0.23376    1.000
    H4       H        0.95505    0.68382    0.35980    1.000
    H5       H        0.58907    0.46518    0.99258    1.000
    H6       H        0.58465    0.39326    0.07648    1.000
    H7       H        0.80901    0.26485    0.04674    1.000
    H8       H        0.67666    0.75009    0.81928    1.000
    H9       H        0.81816    0.67446    0.95136    1.000
    H10      H        0.68208    0.23370    0.76624    1.000
    H11      H        0.54495    0.32402    0.64020    1.000
    H12      H        0.91093    0.47260    0.00742    1.000
    H13      H        0.91535    0.31678    0.92352    1.000
    H14      H        0.69099    0.21811    0.95326    1.000
    H15      H        0.17666    0.06919    0.81928    1.000
    H16      H        0.31816    0.27690    0.95136    1.000
    H17      H        0.18208    0.53254    0.76624    1.000
    H18      H        0.04495    0.31618    0.64020    1.000
    H19      H        0.41093    0.53482    0.00742    1.000
    H20      H        0.41535    0.60674    0.92352    1.000
    H21      H        0.19099    0.73515    0.95326    1.000
    H22      H        0.32334    0.24991    0.18072    1.000
    H23      H        0.18184    0.32554    0.04864    1.000
    H24      H        0.31792    0.76630    0.23376    1.000
    H25      H        0.45505    0.67598    0.35980    1.000
    H26      H        0.08907    0.52740    0.99258    1.000
    H27      H        0.08465    0.68322    0.07648    1.000
    H28      H        0.30901    0.78189    0.04674    1.000
    C1       C        0.76960    0.25680    0.30160    1.000
    C2       C        0.77500    0.20250    0.39200    1.000
    C3       C        0.82190    0.83460    0.19140    1.000
    C4       C        0.73720    0.71240    0.11200    1.000
    C5       C        0.73630    0.57390    0.12860    1.000
    C6       C        0.81740    0.56250    0.22140    1.000
    C7       C        0.89880    0.69170    0.29580    1.000
    C8       C        0.64687    0.43600    0.04600    1.000
    C9       C        0.73040    0.95520    0.69840    1.000
    C10      C        0.72500    0.81050    0.60800    1.000
    C11      C        0.67810    0.64320    0.80860    1.000
    C12      C        0.76280    0.60040    0.88800    1.000
    C13      C        0.76370    0.44530    0.87140    1.000
    C14      C        0.68260    0.34110    0.77860    1.000
    C15      C        0.60120    0.39590    0.70420    1.000
    C16      C        0.85313    0.39000    0.95400    1.000
    C17      C        0.23040    0.74320    0.69840    1.000
    C18      C        0.22500    0.79750    0.60800    1.000
    C19      C        0.17810    0.16540    0.80860    1.000
    C20      C        0.26280    0.28760    0.88800    1.000
    C21      C        0.26370    0.42610    0.87140    1.000
    C22      C        0.18260    0.43750    0.77860    1.000
    C23      C        0.10120    0.30830    0.70420    1.000
    C24      C        0.35313    0.56400    0.95400    1.000
    C25      C        0.26960    0.04480    0.30160    1.000
    C26      C        0.27500    0.18950    0.39200    1.000
    C27      C        0.32190    0.35680    0.19140    1.000
    C28      C        0.23720    0.39960    0.11200    1.000
    C29      C        0.23630    0.55470    0.12860    1.000
    C30      C        0.31740    0.65890    0.22140    1.000
    C31      C        0.39880    0.60410    0.29580    1.000
    C32      C        0.14687    0.61000    0.04600    1.000
    C33      C        0.75000    0.32000    0.00000    1.000
    C34      C        0.25000    0.68000    0.00000    1.000
    N1       N        0.67580    0.24640    0.45080    1.000
    N2       N        0.70640    0.18270    0.52540    1.000
    N3       N        0.82280    0.10190    0.50980    1.000
    N4       N        0.86600    0.11350    0.42700    1.000
    N5       N        0.90200    0.82740    0.28200    1.000
    N6       N        0.82420    0.79560    0.54920    1.000
    N7       N        0.79360    0.65730    0.47460    1.000
    N8       N        0.67720    0.59210    0.49020    1.000
    N9       N        0.63400    0.68650    0.57300    1.000
    N10      N        0.59800    0.54540    0.71800    1.000
    N11      N        0.32420    0.75360    0.54920    1.000
    N12      N        0.29360    0.81730    0.47460    1.000
    N13      N        0.17720    0.89810    0.49020    1.000
    N14      N        0.13400    0.88650    0.57300    1.000
    N15      N        0.09800    0.17260    0.71800    1.000
    N16      N        0.17580    0.20440    0.45080    1.000
    N17      N        0.20640    0.34270    0.52540    1.000
    N18      N        0.32280    0.40790    0.50980    1.000
    N19      N        0.36600    0.31350    0.42700    1.000
    N20      N        0.40200    0.45460    0.28200    1.000
    O1       O        0.86640    0.22820    0.25040    1.000
    O2       O        0.65500    0.32950    0.28900    1.000
    O3       O        0.63360    0.97780    0.74960    1.000
    O4       O        0.84500    0.04050    0.71100    1.000
    O5       O        0.13360    0.77180    0.74960    1.000
    O6       O        0.34500    0.67050    0.71100    1.000
    O7       O        0.36640    0.02220    0.25040    1.000
    O8       O        0.15500    0.95950    0.28900    1.000
