# CIF file generated by openbabel 3.1.0, see https://openbabel.org
data_I
_chemical_name_common 'FURQUF_ion_b'
_cell_length_a 34.091
_cell_length_b 34.091
_cell_length_c 8.5082
_cell_angle_alpha 90
_cell_angle_beta 90
_cell_angle_gamma 120
_space_group_name_H-M_alt 'P 1'
_space_group_name_Hall 'P 1'
loop_
    _symmetry_equiv_pos_as_xyz
    x,y,z
loop_
    _atom_site_label
    _atom_site_type_symbol
    _atom_site_fract_x
    _atom_site_fract_y
    _atom_site_fract_z
    _atom_site_occupancy
    Ag1      Ag       0.85146    0.17100    0.49633    1.000
    O2       O        0.33046    0.32525    0.56093    1.000
    N3       N        0.79312    0.13135    0.34240    1.000
    N4       N        0.72173    0.91738    0.38880    1.000
    C5       C        0.78052    0.15334    0.24260    1.000
    H6       H        0.79760    0.18550    0.24090    1.000
    C7       C        0.41082    0.46520    0.47543    1.000
    H8       H        0.06983    0.81547    0.73937    1.000
    C9       C        0.38567    0.41860    0.47723    1.000
    H10      H        0.35997    0.40293    0.41123    1.000
    C11      C        0.39876    0.39511    0.57783    1.000
    C12      C        0.76904    0.08589    0.34120    1.000
    H13      H        0.77780    0.06960    0.40980    1.000
    C14      C        0.37105    0.34446    0.58273    1.000
    C15      C        0.72779    0.98491    0.27910    1.000
    C16      C        0.43687    0.33092    0.55343    1.000
    H17      H        0.45347    0.35833    0.49593    1.000
    C18      C        0.78805    0.96973    0.24620    1.000
    H19      H        0.81710    0.97750    0.20660    1.000
    C20      C        0.76322    0.93046    0.33040    1.000
    H21      H        0.77590    0.91160    0.34830    1.000
    C22      C        0.70466    0.94441    0.36210    1.000
    H23      H        0.67530    0.93560    0.40140    1.000
    C24      C        0.84700    0.25731    0.53320    1.000
    O25      O        0.18071    0.90447    0.32077    1.000
    O26      O        0.85192    0.24936    0.39610    1.000
    C27      C        0.17108    0.96321    0.22637    1.000
    F28      F        0.84843    0.32424    0.43700    1.000
    F29      F        0.12683    0.94701    0.25497    1.000
    F30      F        0.19376    0.98889    0.34957    1.000
    Ag31     Ag       0.51813    0.50433    0.82966    1.000
    O32      O        0.99712    0.65859    0.89427    1.000
    N33      N        0.45979    0.46468    0.67573    1.000
    N34      N        0.38840    0.25071    0.72213    1.000
    C35      C        0.44719    0.48667    0.57593    1.000
    H36      H        0.46427    0.51883    0.57423    1.000
    C37      C        0.07748    0.79854    0.80877    1.000
    H38      H        0.73650    0.14880    0.07270    1.000
    C39      C        0.05233    0.75194    0.81057    1.000
    H40      H        0.02663    0.73627    0.74457    1.000
    C41      C        0.06542    0.72845    0.91117    1.000
    C42      C        0.43571    0.41922    0.67453    1.000
    H43      H        0.44447    0.40293    0.74313    1.000
    C44      C        0.03771    0.67780    0.91607    1.000
    C45      C        0.39446    0.31824    0.61243    1.000
    C46      C        0.10353    0.66426    0.88677    1.000
    H47      H        0.12013    0.69167    0.82927    1.000
    C48      C        0.45472    0.30306    0.57953    1.000
    H49      H        0.48377    0.31083    0.53993    1.000
    C50      C        0.42989    0.26379    0.66373    1.000
    H51      H        0.44257    0.24493    0.68163    1.000
    C52      C        0.37133    0.27774    0.69543    1.000
    H53      H        0.34197    0.26893    0.73473    1.000
    C54      C        0.51367    0.59064    0.86653    1.000
    O55      O        0.84738    0.23780    0.65410    1.000
    O56      O        0.51859    0.58269    0.72943    1.000
    C57      C        0.83775    0.29654    0.55970    1.000
    F58      F        0.51510    0.65757    0.77033    1.000
    F59      F        0.79350    0.28034    0.58830    1.000
    F60      F        0.86043    0.32222    0.68290    1.000
    Ag61     Ag       0.18479    0.83767    0.16300    1.000
    O62      O        0.66379    0.99192    0.22760    1.000
    N63      N        0.12645    0.79802    0.00907    1.000
    N64      N        0.05506    0.58405    0.05547    1.000
    C65      C        0.11385    0.82001    0.90927    1.000
    H66      H        0.13093    0.85217    0.90757    1.000
    C67      C        0.74415    0.13187    0.14210    1.000
    H68      H        0.40317    0.48213    0.40603    1.000
    C69      C        0.71900    0.08527    0.14390    1.000
    H70      H        0.69330    0.06960    0.07790    1.000
    C71      C        0.73209    0.06178    0.24450    1.000
    C72      C        0.10237    0.75256    0.00787    1.000
    H73      H        0.11113    0.73627    0.07647    1.000
    C74      C        0.70438    0.01113    0.24940    1.000
    C75      C        0.06112    0.65158    0.94577    1.000
    C76      C        0.77020    0.99759    0.22010    1.000
    H77      H        0.78680    0.02500    0.16260    1.000
    C78      C        0.12138    0.63640    0.91287    1.000
    H79      H        0.15043    0.64417    0.87327    1.000
    C80      C        0.09655    0.59713    0.99707    1.000
    H81      H        0.10923    0.57827    0.01497    1.000
    C82      C        0.03799    0.61108    0.02877    1.000
    H83      H        0.00863    0.60227    0.06807    1.000
    C84      C        0.18033    0.92398    0.19987    1.000
    O85      O        0.51405    0.57113    0.98743    1.000
    O86      O        0.18525    0.91603    0.06277    1.000
    C87      C        0.50442    0.62987    0.89303    1.000
    F88      F        0.18176    0.99091    0.10367    1.000
    F89      F        0.46017    0.61367    0.92163    1.000
    F90      F        0.52710    0.65555    0.01623    1.000
    Ag91     Ag       0.82900    0.68046    0.49633    1.000
    O92      O        0.67475    0.00520    0.56093    1.000
    N93      N        0.86865    0.66177    0.34240    1.000
    N94      N        0.08262    0.80435    0.38880    1.000
    C95      C        0.84666    0.62718    0.24260    1.000
    H96      H        0.81450    0.61210    0.24090    1.000
    C97      C        0.53480    0.94561    0.47543    1.000
    H98      H        0.18453    0.25437    0.73937    1.000
    C99      C        0.58140    0.96706    0.47723    1.000
    H100     H        0.59707    0.95703    0.41123    1.000
    C101     C        0.60489    0.00364    0.57783    1.000
    C102     C        0.91411    0.68315    0.34120    1.000
    H103     H        0.93040    0.70820    0.40980    1.000
    C104     C        0.65554    0.02658    0.58273    1.000
    C105     C        0.01509    0.74288    0.27910    1.000
    C106     C        0.66908    0.10594    0.55343    1.000
    H107     H        0.64167    0.09513    0.49593    1.000
    C108     C        0.03027    0.81832    0.24620    1.000
    H109     H        0.02250    0.83960    0.20660    1.000
    C110     C        0.06954    0.83276    0.33040    1.000
    H111     H        0.08840    0.86430    0.34830    1.000
    C112     C        0.05559    0.76025    0.36210    1.000
    H113     H        0.06440    0.73970    0.40140    1.000
    C114     C        0.74269    0.58969    0.53320    1.000
    O115     O        0.09553    0.27625    0.32077    1.000
    O116     O        0.75064    0.60256    0.39610    1.000
    C117     C        0.03679    0.20788    0.22637    1.000
    F118     F        0.67576    0.52419    0.43700    1.000
    F119     F        0.05299    0.17983    0.25497    1.000
    F120     F        0.01111    0.20488    0.34957    1.000
    Ag121    Ag       0.49567    0.01379    0.82966    1.000
    O122     O        0.34141    0.33854    0.89427    1.000
    N123     N        0.53532    0.99510    0.67573    1.000
    N124     N        0.74929    0.13768    0.72213    1.000
    C125     C        0.51333    0.96051    0.57593    1.000
    H126     H        0.48117    0.94543    0.57423    1.000
    C127     C        0.20146    0.27895    0.80877    1.000
    H128     H        0.85120    0.58770    0.07270    1.000
    C129     C        0.24806    0.30040    0.81057    1.000
    H130     H        0.26373    0.29037    0.74457    1.000
    C131     C        0.27155    0.33698    0.91117    1.000
    C132     C        0.58078    0.01648    0.67453    1.000
    H133     H        0.59707    0.04153    0.74313    1.000
    C134     C        0.32220    0.35992    0.91607    1.000
    C135     C        0.68176    0.07621    0.61243    1.000
    C136     C        0.33574    0.43928    0.88677    1.000
    H137     H        0.30833    0.42847    0.82927    1.000
    C138     C        0.69694    0.15165    0.57953    1.000
    H139     H        0.68917    0.17293    0.53993    1.000
    C140     C        0.73621    0.16609    0.66373    1.000
    H141     H        0.75507    0.19763    0.68163    1.000
    C142     C        0.72226    0.09358    0.69543    1.000
    H143     H        0.73107    0.07303    0.73473    1.000
    C144     C        0.40936    0.92302    0.86653    1.000
    O145     O        0.76220    0.60958    0.65410    1.000
    O146     O        0.41731    0.93589    0.72943    1.000
    C147     C        0.70346    0.54121    0.55970    1.000
    F148     F        0.34243    0.85752    0.77033    1.000
    F149     F        0.71966    0.51316    0.58830    1.000
    F150     F        0.67778    0.53821    0.68290    1.000
    Ag151    Ag       0.16233    0.34713    0.16300    1.000
    O152     O        0.00808    0.67187    0.22760    1.000
    N153     N        0.20198    0.32844    0.00907    1.000
    N154     N        0.41595    0.47102    0.05547    1.000
    C155     C        0.17999    0.29385    0.90927    1.000
    H156     H        0.14783    0.27877    0.90757    1.000
    C157     C        0.86813    0.61228    0.14210    1.000
    H158     H        0.51787    0.92103    0.40603    1.000
    C159     C        0.91473    0.63373    0.14390    1.000
    H160     H        0.93040    0.62370    0.07790    1.000
    C161     C        0.93822    0.67031    0.24450    1.000
    C162     C        0.24744    0.34982    0.00787    1.000
    H163     H        0.26373    0.37487    0.07647    1.000
    C164     C        0.98887    0.69325    0.24940    1.000
    C165     C        0.34842    0.40955    0.94577    1.000
    C166     C        0.00241    0.77261    0.22010    1.000
    H167     H        0.97500    0.76180    0.16260    1.000
    C168     C        0.36360    0.48499    0.91287    1.000
    H169     H        0.35583    0.50627    0.87327    1.000
    C170     C        0.40287    0.49943    0.99707    1.000
    H171     H        0.42173    0.53097    0.01497    1.000
    C172     C        0.38892    0.42692    0.02877    1.000
    H173     H        0.39773    0.40637    0.06807    1.000
    C174     C        0.07602    0.25636    0.19987    1.000
    O175     O        0.42887    0.94291    0.98743    1.000
    O176     O        0.08397    0.26923    0.06277    1.000
    C177     C        0.37013    0.87454    0.89303    1.000
    F178     F        0.00909    0.19086    0.10367    1.000
    F179     F        0.38633    0.84649    0.92163    1.000
    F180     F        0.34445    0.87154    0.01623    1.000
    Ag181    Ag       0.31954    0.14854    0.49633    1.000
    O182     O        0.99480    0.66954    0.56093    1.000
    N183     N        0.33823    0.20688    0.34240    1.000
    N184     N        0.19565    0.27827    0.38880    1.000
    C185     C        0.37282    0.21948    0.24260    1.000
    H186     H        0.38790    0.20240    0.24090    1.000
    C187     C        0.05439    0.58918    0.47543    1.000
    H188     H        0.74563    0.93017    0.73937    1.000
    C189     C        0.03294    0.61433    0.47723    1.000
    H190     H        0.04297    0.64003    0.41123    1.000
    C191     C        0.99636    0.60124    0.57783    1.000
    C192     C        0.31685    0.23096    0.34120    1.000
    H193     H        0.29180    0.22220    0.40980    1.000
    C194     C        0.97342    0.62895    0.58273    1.000
    C195     C        0.25712    0.27221    0.27910    1.000
    C196     C        0.89406    0.56313    0.55343    1.000
    H197     H        0.90487    0.54653    0.49593    1.000
    C198     C        0.18168    0.21195    0.24620    1.000
    H199     H        0.16040    0.18290    0.20660    1.000
    C200     C        0.16724    0.23678    0.33040    1.000
    H201     H        0.13570    0.22410    0.34830    1.000
    C202     C        0.23975    0.29534    0.36210    1.000
    H203     H        0.26030    0.32470    0.40140    1.000
    C204     C        0.41031    0.15300    0.53320    1.000
    O205     O        0.72375    0.81929    0.32077    1.000
    O206     O        0.39744    0.14808    0.39610    1.000
    C207     C        0.79212    0.82892    0.22637    1.000
    F208     F        0.47581    0.15157    0.43700    1.000
    F209     F        0.82017    0.87317    0.25497    1.000
    F210     F        0.79512    0.80624    0.34957    1.000
    Ag211    Ag       0.98621    0.48187    0.82966    1.000
    O212     O        0.66146    0.00288    0.89427    1.000
    N213     N        0.00490    0.54021    0.67573    1.000
    N214     N        0.86232    0.61160    0.72213    1.000
    C215     C        0.03949    0.55281    0.57593    1.000
    H216     H        0.05457    0.53573    0.57423    1.000
    C217     C        0.72105    0.92252    0.80877    1.000
    H218     H        0.41230    0.26350    0.07270    1.000
    C219     C        0.69960    0.94767    0.81057    1.000
    H220     H        0.70963    0.97337    0.74457    1.000
    C221     C        0.66302    0.93458    0.91117    1.000
    C222     C        0.98352    0.56429    0.67453    1.000
    H223     H        0.95847    0.55553    0.74313    1.000
    C224     C        0.64008    0.96229    0.91607    1.000
    C225     C        0.92379    0.60554    0.61243    1.000
    C226     C        0.56072    0.89647    0.88677    1.000
    H227     H        0.57153    0.87987    0.82927    1.000
    C228     C        0.84835    0.54528    0.57953    1.000
    H229     H        0.82707    0.51623    0.53993    1.000
    C230     C        0.83391    0.57011    0.66373    1.000
    H231     H        0.80237    0.55743    0.68163    1.000
    C232     C        0.90642    0.62867    0.69543    1.000
    H233     H        0.92697    0.65803    0.73473    1.000
    C234     C        0.07698    0.48633    0.86653    1.000
    O235     O        0.39042    0.15262    0.65410    1.000
    O236     O        0.06411    0.48141    0.72943    1.000
    C237     C        0.45879    0.16225    0.55970    1.000
    F238     F        0.14248    0.48490    0.77033    1.000
    F239     F        0.48684    0.20650    0.58830    1.000
    F240     F        0.46179    0.13957    0.68290    1.000
    Ag241    Ag       0.65287    0.81521    0.16300    1.000
    O242     O        0.32813    0.33621    0.22760    1.000
    N243     N        0.67156    0.87355    0.00907    1.000
    N244     N        0.52898    0.94494    0.05547    1.000
    C245     C        0.70615    0.88615    0.90927    1.000
    H246     H        0.72123    0.86907    0.90757    1.000
    C247     C        0.38772    0.25585    0.14210    1.000
    H248     H        0.07897    0.59683    0.40603    1.000
    C249     C        0.36627    0.28100    0.14390    1.000
    H250     H        0.37630    0.30670    0.07790    1.000
    C251     C        0.32969    0.26791    0.24450    1.000
    C252     C        0.65018    0.89763    0.00787    1.000
    H253     H        0.62513    0.88887    0.07647    1.000
    C254     C        0.30675    0.29562    0.24940    1.000
    C255     C        0.59045    0.93888    0.94577    1.000
    C256     C        0.22739    0.22980    0.22010    1.000
    H257     H        0.23820    0.21320    0.16260    1.000
    C258     C        0.51501    0.87862    0.91287    1.000
    H259     H        0.49373    0.84957    0.87327    1.000
    C260     C        0.50057    0.90345    0.99707    1.000
    H261     H        0.46903    0.89077    0.01497    1.000
    C262     C        0.57308    0.96201    0.02877    1.000
    H263     H        0.59363    0.99137    0.06807    1.000
    C264     C        0.74364    0.81967    0.19987    1.000
    O265     O        0.05709    0.48595    0.98743    1.000
    O266     O        0.73077    0.81475    0.06277    1.000
    C267     C        0.12546    0.49558    0.89303    1.000
    F268     F        0.80914    0.81824    0.10367    1.000
    F269     F        0.15351    0.53983    0.92163    1.000
    F270     F        0.12846    0.47290    0.01623    1.000
    Ag271    Ag       0.14854    0.82900    0.50367    1.000
    O272     O        0.66954    0.67475    0.43907    1.000
    N273     N        0.20688    0.86865    0.65760    1.000
    N274     N        0.27827    0.08262    0.61120    1.000
    C275     C        0.21948    0.84666    0.75740    1.000
    H276     H        0.20240    0.81450    0.75910    1.000
    C277     C        0.58918    0.53480    0.52457    1.000
    H278     H        0.93017    0.18453    0.26063    1.000
    C279     C        0.61433    0.58140    0.52277    1.000
    H280     H        0.64003    0.59707    0.58877    1.000
    C281     C        0.60124    0.60489    0.42217    1.000
    C282     C        0.23096    0.91411    0.65880    1.000
    H283     H        0.22220    0.93040    0.59020    1.000
    C284     C        0.62895    0.65554    0.41727    1.000
    C285     C        0.27221    0.01509    0.72090    1.000
    C286     C        0.56313    0.66908    0.44657    1.000
    H287     H        0.54653    0.64167    0.50407    1.000
    C288     C        0.21195    0.03027    0.75380    1.000
    H289     H        0.18290    0.02250    0.79340    1.000
    C290     C        0.23678    0.06954    0.66960    1.000
    H291     H        0.22410    0.08840    0.65170    1.000
    C292     C        0.29534    0.05559    0.63790    1.000
    H293     H        0.32470    0.06440    0.59860    1.000
    C294     C        0.15300    0.74269    0.46680    1.000
    O295     O        0.81929    0.09553    0.67923    1.000
    O296     O        0.14808    0.75064    0.60390    1.000
    C297     C        0.82892    0.03679    0.77363    1.000
    F298     F        0.15157    0.67576    0.56300    1.000
    F299     F        0.87317    0.05299    0.74503    1.000
    F300     F        0.80624    0.01111    0.65043    1.000
    Ag301    Ag       0.81521    0.16233    0.83700    1.000
    O302     O        0.33621    0.00808    0.77240    1.000
    N303     N        0.87355    0.20198    0.99093    1.000
    N304     N        0.94494    0.41595    0.94453    1.000
    C305     C        0.88615    0.17999    0.09073    1.000
    H306     H        0.86907    0.14783    0.09243    1.000
    C307     C        0.25585    0.86813    0.85790    1.000
    H308     H        0.59683    0.51787    0.59397    1.000
    C309     C        0.28100    0.91473    0.85610    1.000
    H310     H        0.30670    0.93040    0.92210    1.000
    C311     C        0.26791    0.93822    0.75550    1.000
    C312     C        0.89763    0.24744    0.99213    1.000
    H313     H        0.88887    0.26373    0.92353    1.000
    C314     C        0.29562    0.98887    0.75060    1.000
    C315     C        0.93888    0.34842    0.05423    1.000
    C316     C        0.22980    0.00241    0.77990    1.000
    H317     H        0.21320    0.97500    0.83740    1.000
    C318     C        0.87862    0.36360    0.08713    1.000
    H319     H        0.84957    0.35583    0.12673    1.000
    C320     C        0.90345    0.40287    0.00293    1.000
    H321     H        0.89077    0.42173    0.98503    1.000
    C322     C        0.96201    0.38892    0.97123    1.000
    H323     H        0.99137    0.39773    0.93193    1.000
    C324     C        0.81967    0.07602    0.80013    1.000
    O325     O        0.48595    0.42887    0.01257    1.000
    O326     O        0.81475    0.08397    0.93723    1.000
    C327     C        0.49558    0.37013    0.10697    1.000
    F328     F        0.81824    0.00909    0.89633    1.000
    F329     F        0.53983    0.38633    0.07837    1.000
    F330     F        0.47290    0.34445    0.98377    1.000
    Ag331    Ag       0.48187    0.49567    0.17034    1.000
    O332     O        0.00288    0.34141    0.10573    1.000
    N333     N        0.54021    0.53532    0.32427    1.000
    N334     N        0.61160    0.74929    0.27787    1.000
    C335     C        0.55281    0.51333    0.42407    1.000
    H336     H        0.53573    0.48117    0.42577    1.000
    C337     C        0.92252    0.20146    0.19123    1.000
    H338     H        0.26350    0.85120    0.92730    1.000
    C339     C        0.94767    0.24806    0.18943    1.000
    H340     H        0.97337    0.26373    0.25543    1.000
    C341     C        0.93458    0.27155    0.08883    1.000
    C342     C        0.56429    0.58078    0.32547    1.000
    H343     H        0.55553    0.59707    0.25687    1.000
    C344     C        0.96229    0.32220    0.08393    1.000
    C345     C        0.60554    0.68176    0.38757    1.000
    C346     C        0.89647    0.33574    0.11323    1.000
    H347     H        0.87987    0.30833    0.17073    1.000
    C348     C        0.54528    0.69694    0.42047    1.000
    H349     H        0.51623    0.68917    0.46007    1.000
    C350     C        0.57011    0.73621    0.33627    1.000
    H351     H        0.55743    0.75507    0.31837    1.000
    C352     C        0.62867    0.72226    0.30457    1.000
    H353     H        0.65803    0.73107    0.26527    1.000
    C354     C        0.48633    0.40936    0.13347    1.000
    O355     O        0.15262    0.76220    0.34590    1.000
    O356     O        0.48141    0.41731    0.27057    1.000
    C357     C        0.16225    0.70346    0.44030    1.000
    F358     F        0.48490    0.34243    0.22967    1.000
    F359     F        0.20650    0.71966    0.41170    1.000
    F360     F        0.13957    0.67778    0.31710    1.000
    Ag361    Ag       0.17100    0.31954    0.50367    1.000
    O362     O        0.32525    0.99480    0.43907    1.000
    N363     N        0.13135    0.33823    0.65760    1.000
    N364     N        0.91738    0.19565    0.61120    1.000
    C365     C        0.15334    0.37282    0.75740    1.000
    H366     H        0.18550    0.38790    0.75910    1.000
    C367     C        0.46520    0.05439    0.52457    1.000
    H368     H        0.81547    0.74563    0.26063    1.000
    C369     C        0.41860    0.03294    0.52277    1.000
    H370     H        0.40293    0.04297    0.58877    1.000
    C371     C        0.39511    0.99636    0.42217    1.000
    C372     C        0.08589    0.31685    0.65880    1.000
    H373     H        0.06960    0.29180    0.59020    1.000
    C374     C        0.34446    0.97342    0.41727    1.000
    C375     C        0.98491    0.25712    0.72090    1.000
    C376     C        0.33092    0.89406    0.44657    1.000
    H377     H        0.35833    0.90487    0.50407    1.000
    C378     C        0.96973    0.18168    0.75380    1.000
    H379     H        0.97750    0.16040    0.79340    1.000
    C380     C        0.93046    0.16724    0.66960    1.000
    H381     H        0.91160    0.13570    0.65170    1.000
    C382     C        0.94441    0.23975    0.63790    1.000
    H383     H        0.93560    0.26030    0.59860    1.000
    C384     C        0.25731    0.41031    0.46680    1.000
    O385     O        0.90447    0.72375    0.67923    1.000
    O386     O        0.24936    0.39744    0.60390    1.000
    C387     C        0.96321    0.79212    0.77363    1.000
    F388     F        0.32424    0.47581    0.56300    1.000
    F389     F        0.94701    0.82017    0.74503    1.000
    F390     F        0.98889    0.79512    0.65043    1.000
    Ag391    Ag       0.83767    0.65287    0.83700    1.000
    O392     O        0.99192    0.32813    0.77240    1.000
    N393     N        0.79802    0.67156    0.99093    1.000
    N394     N        0.58405    0.52898    0.94453    1.000
    C395     C        0.82001    0.70615    0.09073    1.000
    H396     H        0.85217    0.72123    0.09243    1.000
    C397     C        0.13187    0.38772    0.85790    1.000
    H398     H        0.48213    0.07897    0.59397    1.000
    C399     C        0.08527    0.36627    0.85610    1.000
    H400     H        0.06960    0.37630    0.92210    1.000
    C401     C        0.06178    0.32969    0.75550    1.000
    C402     C        0.75256    0.65018    0.99213    1.000
    H403     H        0.73627    0.62513    0.92353    1.000
    C404     C        0.01113    0.30675    0.75060    1.000
    C405     C        0.65158    0.59045    0.05423    1.000
    C406     C        0.99759    0.22739    0.77990    1.000
    H407     H        0.02500    0.23820    0.83740    1.000
    C408     C        0.63640    0.51501    0.08713    1.000
    H409     H        0.64417    0.49373    0.12673    1.000
    C410     C        0.59713    0.50057    0.00293    1.000
    H411     H        0.57827    0.46903    0.98503    1.000
    C412     C        0.61108    0.57308    0.97123    1.000
    H413     H        0.60227    0.59363    0.93193    1.000
    C414     C        0.92398    0.74364    0.80013    1.000
    O415     O        0.57113    0.05709    0.01257    1.000
    O416     O        0.91603    0.73077    0.93723    1.000
    C417     C        0.62987    0.12546    0.10697    1.000
    F418     F        0.99091    0.80914    0.89633    1.000
    F419     F        0.61367    0.15351    0.07837    1.000
    F420     F        0.65555    0.12846    0.98377    1.000
    Ag421    Ag       0.50433    0.98621    0.17034    1.000
    O422     O        0.65859    0.66146    0.10573    1.000
    N423     N        0.46468    0.00490    0.32427    1.000
    N424     N        0.25071    0.86232    0.27787    1.000
    C425     C        0.48667    0.03949    0.42407    1.000
    H426     H        0.51883    0.05457    0.42577    1.000
    C427     C        0.79854    0.72105    0.19123    1.000
    H428     H        0.14880    0.41230    0.92730    1.000
    C429     C        0.75194    0.69960    0.18943    1.000
    H430     H        0.73627    0.70963    0.25543    1.000
    C431     C        0.72845    0.66302    0.08883    1.000
    C432     C        0.41922    0.98352    0.32547    1.000
    H433     H        0.40293    0.95847    0.25687    1.000
    C434     C        0.67780    0.64008    0.08393    1.000
    C435     C        0.31824    0.92379    0.38757    1.000
    C436     C        0.66426    0.56072    0.11323    1.000
    H437     H        0.69167    0.57153    0.17073    1.000
    C438     C        0.30306    0.84835    0.42047    1.000
    H439     H        0.31083    0.82707    0.46007    1.000
    C440     C        0.26379    0.83391    0.33627    1.000
    H441     H        0.24493    0.80237    0.31837    1.000
    C442     C        0.27774    0.90642    0.30457    1.000
    H443     H        0.26893    0.92697    0.26527    1.000
    C444     C        0.59064    0.07698    0.13347    1.000
    O445     O        0.23780    0.39042    0.34590    1.000
    O446     O        0.58269    0.06411    0.27057    1.000
    C447     C        0.29654    0.45879    0.44030    1.000
    F448     F        0.65757    0.14248    0.22967    1.000
    F449     F        0.28034    0.48684    0.41170    1.000
    F450     F        0.32222    0.46179    0.31710    1.000
    Ag451    Ag       0.68046    0.85146    0.50367    1.000
    O452     O        0.00520    0.33046    0.43907    1.000
    N453     N        0.66177    0.79312    0.65760    1.000
    N454     N        0.80435    0.72173    0.61120    1.000
    C455     C        0.62718    0.78052    0.75740    1.000
    H456     H        0.61210    0.79760    0.75910    1.000
    C457     C        0.94561    0.41082    0.52457    1.000
    H458     H        0.25437    0.06983    0.26063    1.000
    C459     C        0.96706    0.38567    0.52277    1.000
    H460     H        0.95703    0.35997    0.58877    1.000
    C461     C        0.00364    0.39876    0.42217    1.000
    C462     C        0.68315    0.76904    0.65880    1.000
    H463     H        0.70820    0.77780    0.59020    1.000
    C464     C        0.02658    0.37105    0.41727    1.000
    C465     C        0.74288    0.72779    0.72090    1.000
    C466     C        0.10594    0.43687    0.44657    1.000
    H467     H        0.09513    0.45347    0.50407    1.000
    C468     C        0.81832    0.78805    0.75380    1.000
    H469     H        0.83960    0.81710    0.79340    1.000
    C470     C        0.83276    0.76322    0.66960    1.000
    H471     H        0.86430    0.77590    0.65170    1.000
    C472     C        0.76025    0.70466    0.63790    1.000
    H473     H        0.73970    0.67530    0.59860    1.000
    C474     C        0.58969    0.84700    0.46680    1.000
    O475     O        0.27625    0.18071    0.67923    1.000
    O476     O        0.60256    0.85192    0.60390    1.000
    C477     C        0.20788    0.17108    0.77363    1.000
    F478     F        0.52419    0.84843    0.56300    1.000
    F479     F        0.17983    0.12683    0.74503    1.000
    F480     F        0.20488    0.19376    0.65043    1.000
    Ag481    Ag       0.34713    0.18479    0.83700    1.000
    O482     O        0.67187    0.66379    0.77240    1.000
    N483     N        0.32844    0.12645    0.99093    1.000
    N484     N        0.47102    0.05506    0.94453    1.000
    C485     C        0.29385    0.11385    0.09073    1.000
    H486     H        0.27877    0.13093    0.09243    1.000
    C487     C        0.61228    0.74415    0.85790    1.000
    H488     H        0.92103    0.40317    0.59397    1.000
    C489     C        0.63373    0.71900    0.85610    1.000
    H490     H        0.62370    0.69330    0.92210    1.000
    C491     C        0.67031    0.73209    0.75550    1.000
    C492     C        0.34982    0.10237    0.99213    1.000
    H493     H        0.37487    0.11113    0.92353    1.000
    C494     C        0.69325    0.70438    0.75060    1.000
    C495     C        0.40955    0.06112    0.05423    1.000
    C496     C        0.77261    0.77020    0.77990    1.000
    H497     H        0.76180    0.78680    0.83740    1.000
    C498     C        0.48499    0.12138    0.08713    1.000
    H499     H        0.50627    0.15043    0.12673    1.000
    C500     C        0.49943    0.09655    0.00293    1.000
    H501     H        0.53097    0.10923    0.98503    1.000
    C502     C        0.42692    0.03799    0.97123    1.000
    H503     H        0.40637    0.00863    0.93193    1.000
    C504     C        0.25636    0.18033    0.80013    1.000
    O505     O        0.94291    0.51405    0.01257    1.000
    O506     O        0.26923    0.18525    0.93723    1.000
    C507     C        0.87454    0.50442    0.10697    1.000
    F508     F        0.19086    0.18176    0.89633    1.000
    F509     F        0.84649    0.46017    0.07837    1.000
    F510     F        0.87154    0.52710    0.98377    1.000
    Ag511    Ag       0.01379    0.51813    0.17034    1.000
    O512     O        0.33854    0.99712    0.10573    1.000
    N513     N        0.99510    0.45979    0.32427    1.000
    N514     N        0.13768    0.38840    0.27787    1.000
    C515     C        0.96051    0.44719    0.42407    1.000
    H516     H        0.94543    0.46427    0.42577    1.000
    C517     C        0.27895    0.07748    0.19123    1.000
    H518     H        0.58770    0.73650    0.92730    1.000
    C519     C        0.30040    0.05233    0.18943    1.000
    H520     H        0.29037    0.02663    0.25543    1.000
    C521     C        0.33698    0.06542    0.08883    1.000
    C522     C        0.01648    0.43571    0.32547    1.000
    H523     H        0.04153    0.44447    0.25687    1.000
    C524     C        0.35992    0.03771    0.08393    1.000
    C525     C        0.07621    0.39446    0.38757    1.000
    C526     C        0.43928    0.10353    0.11323    1.000
    H527     H        0.42847    0.12013    0.17073    1.000
    C528     C        0.15165    0.45472    0.42047    1.000
    H529     H        0.17293    0.48377    0.46007    1.000
    C530     C        0.16609    0.42989    0.33627    1.000
    H531     H        0.19763    0.44257    0.31837    1.000
    C532     C        0.09358    0.37133    0.30457    1.000
    H533     H        0.07303    0.34197    0.26527    1.000
    C534     C        0.92302    0.51367    0.13347    1.000
    O535     O        0.60958    0.84738    0.34590    1.000
    O536     O        0.93589    0.51859    0.27057    1.000
    C537     C        0.54121    0.83775    0.44030    1.000
    F538     F        0.85752    0.51510    0.22967    1.000
    F539     F        0.51316    0.79350    0.41170    1.000
    F540     F        0.53821    0.86043    0.31710    1.000
