# CIF file generated by openbabel 3.1.0, see https://openbabel.org
data_I
_chemical_name_common 'image0'
_cell_length_a 13.8486
_cell_length_b 22.107
_cell_length_c 25.022
_cell_angle_alpha 90
_cell_angle_beta 95.003
_cell_angle_gamma 90
_space_group_name_H-M_alt 'P 1'
_space_group_name_Hall 'P 1'
loop_
    _symmetry_equiv_pos_as_xyz
    x,y,z
loop_
    _atom_site_label
    _atom_site_type_symbol
    _atom_site_fract_x
    _atom_site_fract_y
    _atom_site_fract_z
    _atom_site_occupancy
    Mo1      Mo       0.92253    0.63384    0.07232    1.000
    Mo2      Mo       0.69379    0.65052    0.11996    1.000
    Mo3      Mo       0.62257    0.75882    0.12939    1.000
    Mo4      Mo       0.75244    0.88493    0.09545    1.000
    Mo5      Mo       0.92288    0.87280    0.06086    1.000
    Mo6      Mo       0.02065    0.72809    0.04801    1.000
    Mn1      Mn       0.92330    0.73645    0.28028    1.000
    Mn2      Mn       0.86510    0.38992    0.16242    1.000
    Mn3      Mn       0.72030    0.42731    0.19410    1.000
    P1       P        0.87268    0.75733    0.14719    1.000
    P2       P        0.84820    0.54736    0.17004    1.000
    P3       P        0.62850    0.88390    0.20376    1.000
    P4       P        0.15960    0.84660    0.08320    1.000
    P5       P        0.13950    0.83130    0.12390    1.000
    O1       O        0.03790    0.67240    0.10790    1.000
    O2       O        0.88840    0.70290    0.02490    1.000
    O3       O        0.77570    0.60920    0.06220    1.000
    O4       O        0.92720    0.57730    0.13830    1.000
    O5       O        0.81370    0.48820    0.14440    1.000
    O6       O        0.89310    0.53730    0.22760    1.000
    O7       O        0.76300    0.59070    0.17260    1.000
    O8       O        0.67070    0.69900    0.18240    1.000
    O9       O        0.67490    0.71830    0.06760    1.000
    O10      O        0.61170    0.81610    0.19460    1.000
    O11      O        0.62570    0.83700    0.08610    1.000
    O12      O        0.53280    0.91870    0.18890    1.000
    O13      O        0.66090    0.89510    0.26230    1.000
    O14      O        0.70800    0.90660    0.16980    1.000
    O15      O        0.88240    0.90410    0.12790    1.000
    O16      O        0.79600    0.83610    0.03600    1.000
    O17      O        0.06320    0.88090    0.09500    1.000
    O18      O        0.20310    0.86100    0.03110    1.000
    O19      O        0.23400    0.86190    0.12610    1.000
    O20      O        0.13390    0.77660    0.08640    1.000
    O21      O        0.12280    0.81350    0.18180    1.000
    O22      O        0.98380    0.81050    0.00910    1.000
    O23      O        0.84640    0.69180    0.13020    1.000
    O24      O        0.77770    0.79480    0.14260    1.000
    O25      O        0.94010    0.78280    0.10560    1.000
    O26      O        0.92360    0.75880    0.20300    1.000
    C1       C        0.94020    0.44040    0.06790    1.000
    H1       H        0.00430    0.44210    0.05510    1.000
    H2       H        0.93840    0.47110    0.09540    1.000
    C2       C        0.86690    0.45930    0.02080    1.000
    H3       H        0.89190    0.49480    0.00380    1.000
    H4       H        0.86260    0.42700    0.99440    1.000
    N1       N        0.93110    0.38070    0.09440    1.000
    H5       H        0.98860    0.37030    0.11050    1.000
    H6       H        0.91220    0.35310    0.06980    1.000
    N2       N        0.76930    0.47280    0.03540    1.000
    H7       H        0.75970    0.51260    0.03480    1.000
    H8       H        0.76320    0.45880    0.06830    1.000
    H9       H        0.72420    0.89150    0.48100    1.000
    H10      H        0.72820    0.92310    0.53210    1.000
    N3       N        0.72440    0.92770    0.49670    1.000
    Mo7      Mo       0.42253    0.13384    0.07232    1.000
    Mo8      Mo       0.19379    0.15052    0.11996    1.000
    Mo9      Mo       0.12257    0.25882    0.12939    1.000
    Mo10     Mo       0.25244    0.38493    0.09545    1.000
    Mo11     Mo       0.42288    0.37280    0.06086    1.000
    Mo12     Mo       0.52065    0.22809    0.04801    1.000
    Mn4      Mn       0.42330    0.23645    0.28028    1.000
    Mn5      Mn       0.36510    0.88992    0.16242    1.000
    Mn6      Mn       0.22030    0.92731    0.19410    1.000
    P6       P        0.37268    0.25733    0.14719    1.000
    P7       P        0.34820    0.04736    0.17004    1.000
    P8       P        0.12850    0.38390    0.20376    1.000
    P9       P        0.65960    0.34660    0.08320    1.000
    P10      P        0.63950    0.33130    0.12390    1.000
    O27      O        0.53790    0.17240    0.10790    1.000
    O28      O        0.38840    0.20290    0.02490    1.000
    O29      O        0.27570    0.10920    0.06220    1.000
    O30      O        0.42720    0.07730    0.13830    1.000
    O31      O        0.31370    0.98820    0.14440    1.000
    O32      O        0.39310    0.03730    0.22760    1.000
    O33      O        0.26300    0.09070    0.17260    1.000
    O34      O        0.17070    0.19900    0.18240    1.000
    O35      O        0.17490    0.21830    0.06760    1.000
    O36      O        0.11170    0.31610    0.19460    1.000
    O37      O        0.12570    0.33700    0.08610    1.000
    O38      O        0.03280    0.41870    0.18890    1.000
    O39      O        0.16090    0.39510    0.26230    1.000
    O40      O        0.20800    0.40660    0.16980    1.000
    O41      O        0.38240    0.40410    0.12790    1.000
    O42      O        0.29600    0.33610    0.03600    1.000
    O43      O        0.56320    0.38090    0.09500    1.000
    O44      O        0.70310    0.36100    0.03110    1.000
    O45      O        0.73400    0.36190    0.12610    1.000
    O46      O        0.63390    0.27660    0.08640    1.000
    O47      O        0.62280    0.31350    0.18180    1.000
    O48      O        0.48380    0.31050    0.00910    1.000
    O49      O        0.34640    0.19180    0.13020    1.000
    O50      O        0.27770    0.29480    0.14260    1.000
    O51      O        0.44010    0.28280    0.10560    1.000
    O52      O        0.42360    0.25880    0.20300    1.000
    C3       C        0.44020    0.94040    0.06790    1.000
    H11      H        0.50430    0.94210    0.05510    1.000
    H12      H        0.43840    0.97110    0.09540    1.000
    C4       C        0.36690    0.95930    0.02080    1.000
    H13      H        0.39190    0.99480    0.00380    1.000
    H14      H        0.36260    0.92700    0.99440    1.000
    N4       N        0.43110    0.88070    0.09440    1.000
    H15      H        0.48860    0.87030    0.11050    1.000
    H16      H        0.41220    0.85310    0.06980    1.000
    N5       N        0.26930    0.97280    0.03540    1.000
    H17      H        0.25970    0.01260    0.03480    1.000
    H18      H        0.26320    0.95880    0.06830    1.000
    H19      H        0.22420    0.39150    0.48100    1.000
    H20      H        0.22820    0.42310    0.53210    1.000
    N6       N        0.22440    0.42770    0.49670    1.000
    Mo13     Mo       0.07747    0.63384    0.42768    1.000
    Mo14     Mo       0.30621    0.65052    0.38004    1.000
    Mo15     Mo       0.37743    0.75882    0.37061    1.000
    Mo16     Mo       0.24756    0.88493    0.40455    1.000
    Mo17     Mo       0.07712    0.87280    0.43914    1.000
    Mo18     Mo       0.97935    0.72809    0.45199    1.000
    Mn7      Mn       0.07670    0.73645    0.21972    1.000
    Mn8      Mn       0.13490    0.38992    0.33758    1.000
    Mn9      Mn       0.27970    0.42731    0.30590    1.000
    P11      P        0.12732    0.75733    0.35281    1.000
    P12      P        0.15180    0.54736    0.32996    1.000
    P13      P        0.37150    0.88390    0.29624    1.000
    P14      P        0.84040    0.84660    0.41680    1.000
    P15      P        0.86050    0.83130    0.37610    1.000
    O53      O        0.96210    0.67240    0.39210    1.000
    O54      O        0.11160    0.70290    0.47510    1.000
    O55      O        0.22430    0.60920    0.43780    1.000
    O56      O        0.07280    0.57730    0.36170    1.000
    O57      O        0.18630    0.48820    0.35560    1.000
    O58      O        0.10690    0.53730    0.27240    1.000
    O59      O        0.23700    0.59070    0.32740    1.000
    O60      O        0.32930    0.69900    0.31760    1.000
    O61      O        0.32510    0.71830    0.43240    1.000
    O62      O        0.38830    0.81610    0.30540    1.000
    O63      O        0.37430    0.83700    0.41390    1.000
    O64      O        0.46720    0.91870    0.31110    1.000
    O65      O        0.33910    0.89510    0.23770    1.000
    O66      O        0.29200    0.90660    0.33020    1.000
    O67      O        0.11760    0.90410    0.37210    1.000
    O68      O        0.20400    0.83610    0.46400    1.000
    O69      O        0.93680    0.88090    0.40500    1.000
    O70      O        0.79690    0.86100    0.46890    1.000
    O71      O        0.76600    0.86190    0.37390    1.000
    O72      O        0.86610    0.77660    0.41360    1.000
    O73      O        0.87720    0.81350    0.31820    1.000
    O74      O        0.01620    0.81050    0.49090    1.000
    O75      O        0.15360    0.69180    0.36980    1.000
    O76      O        0.22230    0.79480    0.35740    1.000
    O77      O        0.05990    0.78280    0.39440    1.000
    O78      O        0.07640    0.75880    0.29700    1.000
    C5       C        0.05980    0.44040    0.43210    1.000
    H21      H        0.99570    0.44210    0.44490    1.000
    H22      H        0.06160    0.47110    0.40460    1.000
    C6       C        0.13310    0.45930    0.47920    1.000
    H23      H        0.10810    0.49480    0.49620    1.000
    H24      H        0.13740    0.42700    0.50560    1.000
    N7       N        0.06890    0.38070    0.40560    1.000
    H25      H        0.01140    0.37030    0.38950    1.000
    H26      H        0.08780    0.35310    0.43020    1.000
    N8       N        0.23070    0.47280    0.46460    1.000
    H27      H        0.24030    0.51260    0.46520    1.000
    H28      H        0.23680    0.45880    0.43170    1.000
    H29      H        0.27580    0.89150    0.01900    1.000
    H30      H        0.27180    0.92310    0.96790    1.000
    N9       N        0.27560    0.92770    0.00330    1.000
    Mo19     Mo       0.57747    0.13384    0.42768    1.000
    Mo20     Mo       0.80621    0.15052    0.38004    1.000
    Mo21     Mo       0.87743    0.25882    0.37061    1.000
    Mo22     Mo       0.74756    0.38493    0.40455    1.000
    Mo23     Mo       0.57712    0.37280    0.43914    1.000
    Mo24     Mo       0.47935    0.22809    0.45199    1.000
    Mn10     Mn       0.57670    0.23645    0.21972    1.000
    Mn11     Mn       0.63490    0.88992    0.33758    1.000
    Mn12     Mn       0.77970    0.92731    0.30590    1.000
    P16      P        0.62732    0.25733    0.35281    1.000
    P17      P        0.65180    0.04736    0.32996    1.000
    P18      P        0.87150    0.38390    0.29624    1.000
    P19      P        0.34040    0.34660    0.41680    1.000
    P20      P        0.36050    0.33130    0.37610    1.000
    O79      O        0.46210    0.17240    0.39210    1.000
    O80      O        0.61160    0.20290    0.47510    1.000
    O81      O        0.72430    0.10920    0.43780    1.000
    O82      O        0.57280    0.07730    0.36170    1.000
    O83      O        0.68630    0.98820    0.35560    1.000
    O84      O        0.60690    0.03730    0.27240    1.000
    O85      O        0.73700    0.09070    0.32740    1.000
    O86      O        0.82930    0.19900    0.31760    1.000
    O87      O        0.82510    0.21830    0.43240    1.000
    O88      O        0.88830    0.31610    0.30540    1.000
    O89      O        0.87430    0.33700    0.41390    1.000
    O90      O        0.96720    0.41870    0.31110    1.000
    O91      O        0.83910    0.39510    0.23770    1.000
    O92      O        0.79200    0.40660    0.33020    1.000
    O93      O        0.61760    0.40410    0.37210    1.000
    O94      O        0.70400    0.33610    0.46400    1.000
    O95      O        0.43680    0.38090    0.40500    1.000
    O96      O        0.29690    0.36100    0.46890    1.000
    O97      O        0.26600    0.36190    0.37390    1.000
    O98      O        0.36610    0.27660    0.41360    1.000
    O99      O        0.37720    0.31350    0.31820    1.000
    O100     O        0.51620    0.31050    0.49090    1.000
    O101     O        0.65360    0.19180    0.36980    1.000
    O102     O        0.72230    0.29480    0.35740    1.000
    O103     O        0.55990    0.28280    0.39440    1.000
    O104     O        0.57640    0.25880    0.29700    1.000
    C7       C        0.55980    0.94040    0.43210    1.000
    H31      H        0.49570    0.94210    0.44490    1.000
    H32      H        0.56160    0.97110    0.40460    1.000
    C8       C        0.63310    0.95930    0.47920    1.000
    H33      H        0.60810    0.99480    0.49620    1.000
    H34      H        0.63740    0.92700    0.50560    1.000
    N10      N        0.56890    0.88070    0.40560    1.000
    H35      H        0.51140    0.87030    0.38950    1.000
    H36      H        0.58780    0.85310    0.43020    1.000
    N11      N        0.73070    0.97280    0.46460    1.000
    H37      H        0.74030    0.01260    0.46520    1.000
    H38      H        0.73680    0.95880    0.43170    1.000
    H39      H        0.77580    0.39150    0.01900    1.000
    H40      H        0.77180    0.42310    0.96790    1.000
    N12      N        0.77560    0.42770    0.00330    1.000
    Mo25     Mo       0.07747    0.36616    0.92768    1.000
    Mo26     Mo       0.30621    0.34948    0.88004    1.000
    Mo27     Mo       0.37743    0.24118    0.87061    1.000
    Mo28     Mo       0.24756    0.11507    0.90455    1.000
    Mo29     Mo       0.07712    0.12720    0.93914    1.000
    Mo30     Mo       0.97935    0.27191    0.95199    1.000
    Mn13     Mn       0.07670    0.26355    0.71972    1.000
    Mn14     Mn       0.13490    0.61008    0.83758    1.000
    Mn15     Mn       0.27970    0.57269    0.80590    1.000
    P21      P        0.12732    0.24267    0.85281    1.000
    P22      P        0.15180    0.45264    0.82996    1.000
    P23      P        0.37150    0.11610    0.79624    1.000
    P24      P        0.84040    0.15340    0.91680    1.000
    P25      P        0.86050    0.16870    0.87610    1.000
    O105     O        0.96210    0.32760    0.89210    1.000
    O106     O        0.11160    0.29710    0.97510    1.000
    O107     O        0.22430    0.39080    0.93780    1.000
    O108     O        0.07280    0.42270    0.86170    1.000
    O109     O        0.18630    0.51180    0.85560    1.000
    O110     O        0.10690    0.46270    0.77240    1.000
    O111     O        0.23700    0.40930    0.82740    1.000
    O112     O        0.32930    0.30100    0.81760    1.000
    O113     O        0.32510    0.28170    0.93240    1.000
    O114     O        0.38830    0.18390    0.80540    1.000
    O115     O        0.37430    0.16300    0.91390    1.000
    O116     O        0.46720    0.08130    0.81110    1.000
    O117     O        0.33910    0.10490    0.73770    1.000
    O118     O        0.29200    0.09340    0.83020    1.000
    O119     O        0.11760    0.09590    0.87210    1.000
    O120     O        0.20400    0.16390    0.96400    1.000
    O121     O        0.93680    0.11910    0.90500    1.000
    O122     O        0.79690    0.13900    0.96890    1.000
    O123     O        0.76600    0.13810    0.87390    1.000
    O124     O        0.86610    0.22340    0.91360    1.000
    O125     O        0.87720    0.18650    0.81820    1.000
    O126     O        0.01620    0.18950    0.99090    1.000
    O127     O        0.15360    0.30820    0.86980    1.000
    O128     O        0.22230    0.20520    0.85740    1.000
    O129     O        0.05990    0.21720    0.89440    1.000
    O130     O        0.07640    0.24120    0.79700    1.000
    C9       C        0.05980    0.55960    0.93210    1.000
    H41      H        0.99570    0.55790    0.94490    1.000
    H42      H        0.06160    0.52890    0.90460    1.000
    C10      C        0.13310    0.54070    0.97920    1.000
    H43      H        0.10810    0.50520    0.99620    1.000
    H44      H        0.13740    0.57300    0.00560    1.000
    N13      N        0.06890    0.61930    0.90560    1.000
    H45      H        0.01140    0.62970    0.88950    1.000
    H46      H        0.08780    0.64690    0.93020    1.000
    N14      N        0.23070    0.52720    0.96460    1.000
    H47      H        0.24030    0.48740    0.96520    1.000
    H48      H        0.23680    0.54120    0.93170    1.000
    H49      H        0.27580    0.10850    0.51900    1.000
    H50      H        0.27180    0.07690    0.46790    1.000
    N15      N        0.27560    0.07230    0.50330    1.000
    Mo31     Mo       0.57747    0.86616    0.92768    1.000
    Mo32     Mo       0.80621    0.84948    0.88004    1.000
    Mo33     Mo       0.87743    0.74118    0.87061    1.000
    Mo34     Mo       0.74756    0.61507    0.90455    1.000
    Mo35     Mo       0.57712    0.62720    0.93914    1.000
    Mo36     Mo       0.47935    0.77191    0.95199    1.000
    Mn16     Mn       0.57670    0.76355    0.71972    1.000
    Mn17     Mn       0.63490    0.11008    0.83758    1.000
    Mn18     Mn       0.77970    0.07269    0.80590    1.000
    P26      P        0.62732    0.74267    0.85281    1.000
    P27      P        0.65180    0.95264    0.82996    1.000
    P28      P        0.87150    0.61610    0.79624    1.000
    P29      P        0.34040    0.65340    0.91680    1.000
    P30      P        0.36050    0.66870    0.87610    1.000
    O131     O        0.46210    0.82760    0.89210    1.000
    O132     O        0.61160    0.79710    0.97510    1.000
    O133     O        0.72430    0.89080    0.93780    1.000
    O134     O        0.57280    0.92270    0.86170    1.000
    O135     O        0.68630    0.01180    0.85560    1.000
    O136     O        0.60690    0.96270    0.77240    1.000
    O137     O        0.73700    0.90930    0.82740    1.000
    O138     O        0.82930    0.80100    0.81760    1.000
    O139     O        0.82510    0.78170    0.93240    1.000
    O140     O        0.88830    0.68390    0.80540    1.000
    O141     O        0.87430    0.66300    0.91390    1.000
    O142     O        0.96720    0.58130    0.81110    1.000
    O143     O        0.83910    0.60490    0.73770    1.000
    O144     O        0.79200    0.59340    0.83020    1.000
    O145     O        0.61760    0.59590    0.87210    1.000
    O146     O        0.70400    0.66390    0.96400    1.000
    O147     O        0.43680    0.61910    0.90500    1.000
    O148     O        0.29690    0.63900    0.96890    1.000
    O149     O        0.26600    0.63810    0.87390    1.000
    O150     O        0.36610    0.72340    0.91360    1.000
    O151     O        0.37720    0.68650    0.81820    1.000
    O152     O        0.51620    0.68950    0.99090    1.000
    O153     O        0.65360    0.80820    0.86980    1.000
    O154     O        0.72230    0.70520    0.85740    1.000
    O155     O        0.55990    0.71720    0.89440    1.000
    O156     O        0.57640    0.74120    0.79700    1.000
    C11      C        0.55980    0.05960    0.93210    1.000
    H51      H        0.49570    0.05790    0.94490    1.000
    H52      H        0.56160    0.02890    0.90460    1.000
    C12      C        0.63310    0.04070    0.97920    1.000
    H53      H        0.60810    0.00520    0.99620    1.000
    H54      H        0.63740    0.07300    0.00560    1.000
    N16      N        0.56890    0.11930    0.90560    1.000
    H55      H        0.51140    0.12970    0.88950    1.000
    H56      H        0.58780    0.14690    0.93020    1.000
    N17      N        0.73070    0.02720    0.96460    1.000
    H57      H        0.74030    0.98740    0.96520    1.000
    H58      H        0.73680    0.04120    0.93170    1.000
    H59      H        0.77580    0.60850    0.51900    1.000
    H60      H        0.77180    0.57690    0.46790    1.000
    N18      N        0.77560    0.57230    0.50330    1.000
    Mo37     Mo       0.92253    0.36616    0.57232    1.000
    Mo38     Mo       0.69379    0.34948    0.61996    1.000
    Mo39     Mo       0.62257    0.24118    0.62939    1.000
    Mo40     Mo       0.75244    0.11507    0.59545    1.000
    Mo41     Mo       0.92288    0.12720    0.56086    1.000
    Mo42     Mo       0.02065    0.27191    0.54801    1.000
    Mn19     Mn       0.92330    0.26355    0.78028    1.000
    Mn20     Mn       0.86510    0.61008    0.66242    1.000
    Mn21     Mn       0.72030    0.57269    0.69410    1.000
    P31      P        0.87268    0.24267    0.64719    1.000
    P32      P        0.84820    0.45264    0.67004    1.000
    P33      P        0.62850    0.11610    0.70376    1.000
    P34      P        0.15960    0.15340    0.58320    1.000
    P35      P        0.13950    0.16870    0.62390    1.000
    O157     O        0.03790    0.32760    0.60790    1.000
    O158     O        0.88840    0.29710    0.52490    1.000
    O159     O        0.77570    0.39080    0.56220    1.000
    O160     O        0.92720    0.42270    0.63830    1.000
    O161     O        0.81370    0.51180    0.64440    1.000
    O162     O        0.89310    0.46270    0.72760    1.000
    O163     O        0.76300    0.40930    0.67260    1.000
    O164     O        0.67070    0.30100    0.68240    1.000
    O165     O        0.67490    0.28170    0.56760    1.000
    O166     O        0.61170    0.18390    0.69460    1.000
    O167     O        0.62570    0.16300    0.58610    1.000
    O168     O        0.53280    0.08130    0.68890    1.000
    O169     O        0.66090    0.10490    0.76230    1.000
    O170     O        0.70800    0.09340    0.66980    1.000
    O171     O        0.88240    0.09590    0.62790    1.000
    O172     O        0.79600    0.16390    0.53600    1.000
    O173     O        0.06320    0.11910    0.59500    1.000
    O174     O        0.20310    0.13900    0.53110    1.000
    O175     O        0.23400    0.13810    0.62610    1.000
    O176     O        0.13390    0.22340    0.58640    1.000
    O177     O        0.12280    0.18650    0.68180    1.000
    O178     O        0.98380    0.18950    0.50910    1.000
    O179     O        0.84640    0.30820    0.63020    1.000
    O180     O        0.77770    0.20520    0.64260    1.000
    O181     O        0.94010    0.21720    0.60560    1.000
    O182     O        0.92360    0.24120    0.70300    1.000
    C13      C        0.94020    0.55960    0.56790    1.000
    H61      H        0.00430    0.55790    0.55510    1.000
    H62      H        0.93840    0.52890    0.59540    1.000
    C14      C        0.86690    0.54070    0.52080    1.000
    H63      H        0.89190    0.50520    0.50380    1.000
    H64      H        0.86260    0.57300    0.49440    1.000
    N19      N        0.93110    0.61930    0.59440    1.000
    H65      H        0.98860    0.62970    0.61050    1.000
    H66      H        0.91220    0.64690    0.56980    1.000
    N20      N        0.76930    0.52720    0.53540    1.000
    H67      H        0.75970    0.48740    0.53480    1.000
    H68      H        0.76320    0.54120    0.56830    1.000
    H69      H        0.72420    0.10850    0.98100    1.000
    H70      H        0.72820    0.07690    0.03210    1.000
    N21      N        0.72440    0.07230    0.99670    1.000
    Mo43     Mo       0.42253    0.86616    0.57232    1.000
    Mo44     Mo       0.19379    0.84948    0.61996    1.000
    Mo45     Mo       0.12257    0.74118    0.62939    1.000
    Mo46     Mo       0.25244    0.61507    0.59545    1.000
    Mo47     Mo       0.42288    0.62720    0.56086    1.000
    Mo48     Mo       0.52065    0.77191    0.54801    1.000
    Mn22     Mn       0.42330    0.76355    0.78028    1.000
    Mn23     Mn       0.36510    0.11008    0.66242    1.000
    Mn24     Mn       0.22030    0.07269    0.69410    1.000
    P36      P        0.37268    0.74267    0.64719    1.000
    P37      P        0.34820    0.95264    0.67004    1.000
    P38      P        0.12850    0.61610    0.70376    1.000
    P39      P        0.65960    0.65340    0.58320    1.000
    P40      P        0.63950    0.66870    0.62390    1.000
    O183     O        0.53790    0.82760    0.60790    1.000
    O184     O        0.38840    0.79710    0.52490    1.000
    O185     O        0.27570    0.89080    0.56220    1.000
    O186     O        0.42720    0.92270    0.63830    1.000
    O187     O        0.31370    0.01180    0.64440    1.000
    O188     O        0.39310    0.96270    0.72760    1.000
    O189     O        0.26300    0.90930    0.67260    1.000
    O190     O        0.17070    0.80100    0.68240    1.000
    O191     O        0.17490    0.78170    0.56760    1.000
    O192     O        0.11170    0.68390    0.69460    1.000
    O193     O        0.12570    0.66300    0.58610    1.000
    O194     O        0.03280    0.58130    0.68890    1.000
    O195     O        0.16090    0.60490    0.76230    1.000
    O196     O        0.20800    0.59340    0.66980    1.000
    O197     O        0.38240    0.59590    0.62790    1.000
    O198     O        0.29600    0.66390    0.53600    1.000
    O199     O        0.56320    0.61910    0.59500    1.000
    O200     O        0.70310    0.63900    0.53110    1.000
    O201     O        0.73400    0.63810    0.62610    1.000
    O202     O        0.63390    0.72340    0.58640    1.000
    O203     O        0.62280    0.68650    0.68180    1.000
    O204     O        0.48380    0.68950    0.50910    1.000
    O205     O        0.34640    0.80820    0.63020    1.000
    O206     O        0.27770    0.70520    0.64260    1.000
    O207     O        0.44010    0.71720    0.60560    1.000
    O208     O        0.42360    0.74120    0.70300    1.000
    C15      C        0.44020    0.05960    0.56790    1.000
    H71      H        0.50430    0.05790    0.55510    1.000
    H72      H        0.43840    0.02890    0.59540    1.000
    C16      C        0.36690    0.04070    0.52080    1.000
    H73      H        0.39190    0.00520    0.50380    1.000
    H74      H        0.36260    0.07300    0.49440    1.000
    N22      N        0.43110    0.11930    0.59440    1.000
    H75      H        0.48860    0.12970    0.61050    1.000
    H76      H        0.41220    0.14690    0.56980    1.000
    N23      N        0.26930    0.02720    0.53540    1.000
    H77      H        0.25970    0.98740    0.53480    1.000
    H78      H        0.26320    0.04120    0.56830    1.000
    H79      H        0.22420    0.60850    0.98100    1.000
    H80      H        0.22820    0.57690    0.03210    1.000
    N24      N        0.22440    0.57230    0.99670    1.000
    Mn25     Mn       0.75000    0.75000    0.00000    1.000
    Mn26     Mn       0.25000    0.75000    0.50000    1.000
    Mn27     Mn       0.25000    0.25000    0.00000    1.000
    Mn28     Mn       0.75000    0.25000    0.50000    1.000
    Mn29     Mn       0.00000    0.47564    0.25000    1.000
    Mn30     Mn       0.50000    0.97564    0.25000    1.000
    Mn31     Mn       0.00000    0.52436    0.75000    1.000
    Mn32     Mn       0.50000    0.02436    0.75000    1.000
