# CIF file generated by openbabel 3.1.0, see https://openbabel.org
data_I
_chemical_name_common 'image0'
_cell_length_a 28.8471
_cell_length_b 14.4534
_cell_length_c 12.252
_cell_angle_alpha 90
_cell_angle_beta 90
_cell_angle_gamma 90
_space_group_name_H-M_alt 'P 1'
_space_group_name_Hall 'P 1'
loop_
    _symmetry_equiv_pos_as_xyz
    x,y,z
loop_
    _atom_site_label
    _atom_site_type_symbol
    _atom_site_fract_x
    _atom_site_fract_y
    _atom_site_fract_z
    _atom_site_occupancy
    Dy1      Dy       0.15720    0.39056    0.73698    1.000
    Dy2      Dy       0.09343    0.07287    0.52302    1.000
    Co1      Co       0.96307    0.38032    0.53843    1.000
    Co2      Co       0.20310    0.17064    0.12248    1.000
    O1       O        0.12370    0.41810    0.91750    1.000
    O2       O        0.06260    0.49590    0.98160    1.000
    O3       O        0.21190    0.47270    0.83480    1.000
    O4       O        0.24020    0.48220    0.00170    1.000
    O5       O        0.01230    0.11540    0.50900    1.000
    O6       O        0.98220    0.24510    0.57230    1.000
    O7       O        0.07290    0.07890    0.33820    1.000
    O8       O        0.01290    0.04340    0.24240    1.000
    O9       O        0.15840    0.24070    0.81720    1.000
    O10      O        0.19900    0.23500    0.97330    1.000
    O11      O        0.07060    0.11990    0.71050    1.000
    O12      O        0.14030    0.06010    0.69200    1.000
    O13      O        0.25870    0.55860    0.57540    1.000
    O14      O        0.19030    0.48950    0.60090    1.000
    O15      O        0.11010    0.52300    0.71440    1.000
    O16      O        0.08690    0.59760    0.56820    1.000
    O17      O        0.19430    0.10870    0.27630    1.000
    O18      O        0.16340    0.12880    0.44260    1.000
    O19      O        0.14180    0.33490    0.56150    1.000
    O20      O        0.08970    0.23340    0.51730    1.000
    O21      O        0.12470    0.92830    0.44700    1.000
    O22      O        0.84770    0.05040    0.98000    1.000
    N1       N        0.10820    0.65080    0.00550    1.000
    N2       N        0.98850    0.33190    0.38420    1.000
    N3       N        0.14480    0.10560    0.04910    1.000
    N4       N        0.22790    0.71420    0.66390    1.000
    N5       N        0.16620    0.27260    0.20620    1.000
    C1       C        0.13140    0.57920    0.97350    1.000
    C2       C        0.18270    0.58690    0.95740    1.000
    C3       C        0.20310    0.67130    0.97310    1.000
    H1       H        0.23500    0.67860    0.96570    1.000
    C4       C        0.17450    0.74760    0.00100    1.000
    H2       H        0.18730    0.80620    0.00980    1.000
    C5       C        0.12690    0.73380    0.01490    1.000
    H3       H        0.10800    0.78420    0.03120    1.000
    C6       C        0.10530    0.49060    0.95550    1.000
    C7       C        0.21410    0.50620    0.93070    1.000
    C8       C        0.00440    0.24290    0.38200    1.000
    C9       C        0.02180    0.19810    0.29300    1.000
    C10      C        0.02550    0.25000    0.19850    1.000
    H4       H        0.03730    0.22330    0.13520    1.000
    C11      C        0.01210    0.33810    0.19810    1.000
    H5       H        0.01650    0.37340    0.13550    1.000
    C12      C        0.99150    0.37890    0.28910    1.000
    H6       H        0.97980    0.43870    0.28430    1.000
    C13      C        0.99950    0.19660    0.49720    1.000
    C14      C        0.03610    0.09890    0.29250    1.000
    C15      C        0.14050    0.12570    0.94410    1.000
    C16      C        0.11090    0.07720    0.87310    1.000
    C17      C        0.08010    0.01170    0.92170    1.000
    H7       H        0.05750    0.98160    0.88100    1.000
    C18      C        0.08540    0.99530    0.03050    1.000
    H8       H        0.06680    0.95130    0.06430    1.000
    C19      C        0.11720    0.04140    0.09020    1.000
    H9       H        0.11980    0.02740    0.16400    1.000
    C20      C        0.16900    0.20650    0.90660    1.000
    C21      C        0.10760    0.09110    0.74970    1.000
    C22      C        0.19750    0.64910    0.64810    1.000
    C23      C        0.14840    0.66280    0.66480    1.000
    C24      C        0.13380    0.74620    0.69910    1.000
    H10      H        0.10270    0.75840    0.71310    1.000
    C25      C        0.16990    0.81680    0.71310    1.000
    H11      H        0.16130    0.87660    0.73240    1.000
    C26      C        0.21420    0.79770    0.69910    1.000
    H12      H        0.23630    0.84290    0.71380    1.000
    C27      C        0.21480    0.55680    0.60770    1.000
    C28      C        0.11310    0.59010    0.64780    1.000
    C29      C        0.15560    0.24750    0.31110    1.000
    C30      C        0.13150    0.31030    0.37960    1.000
    C31      C        0.11880    0.39580    0.34120    1.000
    H13      H        0.10240    0.43720    0.38470    1.000
    C32      C        0.13230    0.42000    0.22770    1.000
    H14      H        0.12490    0.47750    0.19840    1.000
    C33      C        0.15610    0.35490    0.16640    1.000
    H15      H        0.16510    0.36970    0.09560    1.000
    C34      C        0.17060    0.15490    0.34760    1.000
    C35      C        0.11940    0.28830    0.49560    1.000
    Dy3      Dy       0.84280    0.60944    0.23698    1.000
    Dy4      Dy       0.90657    0.92713    0.02302    1.000
    Co3      Co       0.03693    0.61968    0.03843    1.000
    Co4      Co       0.79690    0.82936    0.62248    1.000
    O23      O        0.87630    0.58190    0.41750    1.000
    O24      O        0.93740    0.50410    0.48160    1.000
    O25      O        0.78810    0.52730    0.33480    1.000
    O26      O        0.75980    0.51780    0.50170    1.000
    O27      O        0.98770    0.88460    0.00900    1.000
    O28      O        0.01780    0.75490    0.07230    1.000
    O29      O        0.92710    0.92110    0.83820    1.000
    O30      O        0.98710    0.95660    0.74240    1.000
    O31      O        0.84160    0.75930    0.31720    1.000
    O32      O        0.80100    0.76500    0.47330    1.000
    O33      O        0.92940    0.88010    0.21050    1.000
    O34      O        0.85970    0.93990    0.19200    1.000
    O35      O        0.74130    0.44140    0.07540    1.000
    O36      O        0.80970    0.51050    0.10090    1.000
    O37      O        0.88990    0.47700    0.21440    1.000
    O38      O        0.91310    0.40240    0.06820    1.000
    O39      O        0.80570    0.89130    0.77630    1.000
    O40      O        0.83660    0.87120    0.94260    1.000
    O41      O        0.85820    0.66510    0.06150    1.000
    O42      O        0.91030    0.76660    0.01730    1.000
    O43      O        0.87530    0.07170    0.94700    1.000
    O44      O        0.15230    0.94960    0.48000    1.000
    N6       N        0.89180    0.34920    0.50550    1.000
    N7       N        0.01150    0.66810    0.88420    1.000
    N8       N        0.85520    0.89440    0.54910    1.000
    N9       N        0.77210    0.28580    0.16390    1.000
    N10      N        0.83380    0.72740    0.70620    1.000
    C36      C        0.86860    0.42080    0.47350    1.000
    C37      C        0.81730    0.41310    0.45740    1.000
    C38      C        0.79690    0.32870    0.47310    1.000
    H16      H        0.76500    0.32140    0.46570    1.000
    C39      C        0.82550    0.25240    0.50100    1.000
    H17      H        0.81270    0.19380    0.50980    1.000
    C40      C        0.87310    0.26620    0.51490    1.000
    H18      H        0.89200    0.21580    0.53120    1.000
    C41      C        0.89470    0.50940    0.45550    1.000
    C42      C        0.78590    0.49380    0.43070    1.000
    C43      C        0.99560    0.75710    0.88200    1.000
    C44      C        0.97820    0.80190    0.79300    1.000
    C45      C        0.97450    0.75000    0.69850    1.000
    H19      H        0.96270    0.77670    0.63520    1.000
    C46      C        0.98790    0.66190    0.69810    1.000
    H20      H        0.98350    0.62660    0.63550    1.000
    C47      C        0.00850    0.62110    0.78910    1.000
    H21      H        0.02020    0.56130    0.78430    1.000
    C48      C        0.00050    0.80340    0.99720    1.000
    C49      C        0.96390    0.90110    0.79250    1.000
    C50      C        0.85950    0.87430    0.44410    1.000
    C51      C        0.88910    0.92280    0.37310    1.000
    C52      C        0.91990    0.98830    0.42170    1.000
    H22      H        0.94250    0.01840    0.38100    1.000
    C53      C        0.91460    0.00470    0.53050    1.000
    H23      H        0.93320    0.04870    0.56430    1.000
    C54      C        0.88280    0.95860    0.59020    1.000
    H24      H        0.88020    0.97260    0.66400    1.000
    C55      C        0.83100    0.79350    0.40660    1.000
    C56      C        0.89240    0.90890    0.24970    1.000
    C57      C        0.80250    0.35090    0.14810    1.000
    C58      C        0.85160    0.33720    0.16480    1.000
    C59      C        0.86620    0.25380    0.19910    1.000
    H25      H        0.89730    0.24160    0.21310    1.000
    C60      C        0.83010    0.18320    0.21310    1.000
    H26      H        0.83870    0.12340    0.23240    1.000
    C61      C        0.78580    0.20230    0.19910    1.000
    H27      H        0.76370    0.15710    0.21380    1.000
    C62      C        0.78520    0.44320    0.10770    1.000
    C63      C        0.88690    0.40990    0.14780    1.000
    C64      C        0.84440    0.75250    0.81110    1.000
    C65      C        0.86850    0.68970    0.87960    1.000
    C66      C        0.88120    0.60420    0.84120    1.000
    H28      H        0.89760    0.56280    0.88470    1.000
    C67      C        0.86770    0.58000    0.72770    1.000
    H29      H        0.87510    0.52250    0.69840    1.000
    C68      C        0.84390    0.64510    0.66640    1.000
    H30      H        0.83490    0.63030    0.59560    1.000
    C69      C        0.82940    0.84510    0.84760    1.000
    C70      C        0.88060    0.71170    0.99560    1.000
    Dy5      Dy       0.65720    0.10944    0.73698    1.000
    Dy6      Dy       0.59343    0.42713    0.52302    1.000
    Co5      Co       0.46307    0.11968    0.53843    1.000
    Co6      Co       0.70310    0.32936    0.12248    1.000
    O45      O        0.62370    0.08190    0.91750    1.000
    O46      O        0.56260    0.00410    0.98160    1.000
    O47      O        0.71190    0.02730    0.83480    1.000
    O48      O        0.74020    0.01780    0.00170    1.000
    O49      O        0.51230    0.38460    0.50900    1.000
    O50      O        0.48220    0.25490    0.57230    1.000
    O51      O        0.57290    0.42110    0.33820    1.000
    O52      O        0.51290    0.45660    0.24240    1.000
    O53      O        0.65840    0.25930    0.81720    1.000
    O54      O        0.69900    0.26500    0.97330    1.000
    O55      O        0.57060    0.38010    0.71050    1.000
    O56      O        0.64030    0.43990    0.69200    1.000
    O57      O        0.75870    0.94140    0.57540    1.000
    O58      O        0.69030    0.01050    0.60090    1.000
    O59      O        0.61010    0.97700    0.71440    1.000
    O60      O        0.58690    0.90240    0.56820    1.000
    O61      O        0.69430    0.39130    0.27630    1.000
    O62      O        0.66340    0.37120    0.44260    1.000
    O63      O        0.64180    0.16510    0.56150    1.000
    O64      O        0.58970    0.26660    0.51730    1.000
    O65      O        0.62470    0.57170    0.44700    1.000
    O66      O        0.34770    0.44960    0.98000    1.000
    N11      N        0.60820    0.84920    0.00550    1.000
    N12      N        0.48850    0.16810    0.38420    1.000
    N13      N        0.64480    0.39440    0.04910    1.000
    N14      N        0.72790    0.78580    0.66390    1.000
    N15      N        0.66620    0.22740    0.20620    1.000
    C71      C        0.63140    0.92080    0.97350    1.000
    C72      C        0.68270    0.91310    0.95740    1.000
    C73      C        0.70310    0.82870    0.97310    1.000
    H31      H        0.73500    0.82140    0.96570    1.000
    C74      C        0.67450    0.75240    0.00100    1.000
    H32      H        0.68730    0.69380    0.00980    1.000
    C75      C        0.62690    0.76620    0.01490    1.000
    H33      H        0.60800    0.71580    0.03120    1.000
    C76      C        0.60530    0.00940    0.95550    1.000
    C77      C        0.71410    0.99380    0.93070    1.000
    C78      C        0.50440    0.25710    0.38200    1.000
    C79      C        0.52180    0.30190    0.29300    1.000
    C80      C        0.52550    0.25000    0.19850    1.000
    H34      H        0.53730    0.27670    0.13520    1.000
    C81      C        0.51210    0.16190    0.19810    1.000
    H35      H        0.51650    0.12660    0.13550    1.000
    C82      C        0.49150    0.12110    0.28910    1.000
    H36      H        0.47980    0.06130    0.28430    1.000
    C83      C        0.49950    0.30340    0.49720    1.000
    C84      C        0.53610    0.40110    0.29250    1.000
    C85      C        0.64050    0.37430    0.94410    1.000
    C86      C        0.61090    0.42280    0.87310    1.000
    C87      C        0.58010    0.48830    0.92170    1.000
    H37      H        0.55750    0.51840    0.88100    1.000
    C88      C        0.58540    0.50470    0.03050    1.000
    H38      H        0.56680    0.54870    0.06430    1.000
    C89      C        0.61720    0.45860    0.09020    1.000
    H39      H        0.61980    0.47260    0.16400    1.000
    C90      C        0.66900    0.29350    0.90660    1.000
    C91      C        0.60760    0.40890    0.74970    1.000
    C92      C        0.69750    0.85090    0.64810    1.000
    C93      C        0.64840    0.83720    0.66480    1.000
    C94      C        0.63380    0.75380    0.69910    1.000
    H40      H        0.60270    0.74160    0.71310    1.000
    C95      C        0.66990    0.68320    0.71310    1.000
    H41      H        0.66130    0.62340    0.73240    1.000
    C96      C        0.71420    0.70230    0.69910    1.000
    H42      H        0.73630    0.65710    0.71380    1.000
    C97      C        0.71480    0.94320    0.60770    1.000
    C98      C        0.61310    0.90990    0.64780    1.000
    C99      C        0.65560    0.25250    0.31110    1.000
    C100     C        0.63150    0.18970    0.37960    1.000
    C101     C        0.61880    0.10420    0.34120    1.000
    H43      H        0.60240    0.06280    0.38470    1.000
    C102     C        0.63230    0.08000    0.22770    1.000
    H44      H        0.62490    0.02250    0.19840    1.000
    C103     C        0.65610    0.14510    0.16640    1.000
    H45      H        0.66510    0.13030    0.09560    1.000
    C104     C        0.67060    0.34510    0.34760    1.000
    C105     C        0.61940    0.21170    0.49560    1.000
    Dy7      Dy       0.34280    0.89056    0.23698    1.000
    Dy8      Dy       0.40657    0.57287    0.02302    1.000
    Co7      Co       0.53693    0.88032    0.03843    1.000
    Co8      Co       0.29690    0.67064    0.62248    1.000
    O67      O        0.37630    0.91810    0.41750    1.000
    O68      O        0.43740    0.99590    0.48160    1.000
    O69      O        0.28810    0.97270    0.33480    1.000
    O70      O        0.25980    0.98220    0.50170    1.000
    O71      O        0.48770    0.61540    0.00900    1.000
    O72      O        0.51780    0.74510    0.07230    1.000
    O73      O        0.42710    0.57890    0.83820    1.000
    O74      O        0.48710    0.54340    0.74240    1.000
    O75      O        0.34160    0.74070    0.31720    1.000
    O76      O        0.30100    0.73500    0.47330    1.000
    O77      O        0.42940    0.61990    0.21050    1.000
    O78      O        0.35970    0.56010    0.19200    1.000
    O79      O        0.24130    0.05860    0.07540    1.000
    O80      O        0.30970    0.98950    0.10090    1.000
    O81      O        0.38990    0.02300    0.21440    1.000
    O82      O        0.41310    0.09760    0.06820    1.000
    O83      O        0.30570    0.60870    0.77630    1.000
    O84      O        0.33660    0.62880    0.94260    1.000
    O85      O        0.35820    0.83490    0.06150    1.000
    O86      O        0.41030    0.73340    0.01730    1.000
    O87      O        0.37530    0.42830    0.94700    1.000
    O88      O        0.65230    0.55040    0.48000    1.000
    N16      N        0.39180    0.15080    0.50550    1.000
    N17      N        0.51150    0.83190    0.88420    1.000
    N18      N        0.35520    0.60560    0.54910    1.000
    N19      N        0.27210    0.21420    0.16390    1.000
    N20      N        0.33380    0.77260    0.70620    1.000
    C106     C        0.36860    0.07920    0.47350    1.000
    C107     C        0.31730    0.08690    0.45740    1.000
    C108     C        0.29690    0.17130    0.47310    1.000
    H46      H        0.26500    0.17860    0.46570    1.000
    C109     C        0.32550    0.24760    0.50100    1.000
    H47      H        0.31270    0.30620    0.50980    1.000
    C110     C        0.37310    0.23380    0.51490    1.000
    H48      H        0.39200    0.28420    0.53120    1.000
    C111     C        0.39470    0.99060    0.45550    1.000
    C112     C        0.28590    0.00620    0.43070    1.000
    C113     C        0.49560    0.74290    0.88200    1.000
    C114     C        0.47820    0.69810    0.79300    1.000
    C115     C        0.47450    0.75000    0.69850    1.000
    H49      H        0.46270    0.72330    0.63520    1.000
    C116     C        0.48790    0.83810    0.69810    1.000
    H50      H        0.48350    0.87340    0.63550    1.000
    C117     C        0.50850    0.87890    0.78910    1.000
    H51      H        0.52020    0.93870    0.78430    1.000
    C118     C        0.50050    0.69660    0.99720    1.000
    C119     C        0.46390    0.59890    0.79250    1.000
    C120     C        0.35950    0.62570    0.44410    1.000
    C121     C        0.38910    0.57720    0.37310    1.000
    C122     C        0.41990    0.51170    0.42170    1.000
    H52      H        0.44250    0.48160    0.38100    1.000
    C123     C        0.41460    0.49530    0.53050    1.000
    H53      H        0.43320    0.45130    0.56430    1.000
    C124     C        0.38280    0.54140    0.59020    1.000
    H54      H        0.38020    0.52740    0.66400    1.000
    C125     C        0.33100    0.70650    0.40660    1.000
    C126     C        0.39240    0.59110    0.24970    1.000
    C127     C        0.30250    0.14910    0.14810    1.000
    C128     C        0.35160    0.16280    0.16480    1.000
    C129     C        0.36620    0.24620    0.19910    1.000
    H55      H        0.39730    0.25840    0.21310    1.000
    C130     C        0.33010    0.31680    0.21310    1.000
    H56      H        0.33870    0.37660    0.23240    1.000
    C131     C        0.28580    0.29770    0.19910    1.000
    H57      H        0.26370    0.34290    0.21380    1.000
    C132     C        0.28520    0.05680    0.10770    1.000
    C133     C        0.38690    0.09010    0.14780    1.000
    C134     C        0.34440    0.74750    0.81110    1.000
    C135     C        0.36850    0.81030    0.87960    1.000
    C136     C        0.38120    0.89580    0.84120    1.000
    H58      H        0.39760    0.93720    0.88470    1.000
    C137     C        0.36770    0.92000    0.72770    1.000
    H59      H        0.37510    0.97750    0.69840    1.000
    C138     C        0.34390    0.85490    0.66640    1.000
    H60      H        0.33490    0.86970    0.59560    1.000
    C139     C        0.32940    0.65490    0.84760    1.000
    C140     C        0.38060    0.78830    0.99560    1.000
