# CIF file generated by openbabel 3.1.0, see https://openbabel.org
data_I
_chemical_name_common 'OKIKEZ_charged'
_cell_length_a 10.0613
_cell_length_b 11.993
_cell_length_c 26.359
_cell_angle_alpha 90
_cell_angle_beta 90
_cell_angle_gamma 90
_space_group_name_H-M_alt 'P 1'
_space_group_name_Hall 'P 1'
loop_
    _symmetry_equiv_pos_as_xyz
    x,y,z
loop_
    _atom_site_label
    _atom_site_type_symbol
    _atom_site_fract_x
    _atom_site_fract_y
    _atom_site_fract_z
    _atom_site_occupancy
    Ag1      Ag       0.71251    0.21511    0.51276    1.000
    Ag2      Ag       0.28749    0.21511    0.48724    1.000
    Ag3      Ag       0.71251    0.71511    0.98724    1.000
    Ag4      Ag       0.28749    0.71511    0.01276    1.000
    H1       H        0.80970    0.06590    0.32620    1.000
    H2       H        0.83200    0.06440    0.23920    1.000
    H3       H        0.72350    0.38360    0.23260    1.000
    H4       H        0.71290    0.38770    0.32070    1.000
    H5       H        0.55110    0.14540    0.19840    1.000
    H6       H        0.41500    0.02490    0.15670    1.000
    H7       H        0.68990    0.98830    0.04710    1.000
    H8       H        0.82660    0.11030    0.08960    1.000
    H9       H        0.72960    0.31900    0.08810    1.000
    H10      H        0.84550    0.45350    0.04560    1.000
    H11      H        0.12230    0.45350    0.15580    1.000
    H12      H        0.00570    0.31540    0.19720    1.000
    H13      H        0.19030    0.06590    0.67380    1.000
    H14      H        0.16800    0.06440    0.76080    1.000
    H15      H        0.27650    0.38360    0.76740    1.000
    H16      H        0.28710    0.38770    0.67930    1.000
    H17      H        0.44890    0.14540    0.80160    1.000
    H18      H        0.58500    0.02490    0.84330    1.000
    H19      H        0.31010    0.98830    0.95290    1.000
    H20      H        0.17340    0.11030    0.91040    1.000
    H21      H        0.27040    0.31900    0.91190    1.000
    H22      H        0.15450    0.45350    0.95440    1.000
    H23      H        0.87770    0.45350    0.84420    1.000
    H24      H        0.99430    0.31540    0.80280    1.000
    H25      H        0.80970    0.56590    0.17380    1.000
    H26      H        0.83200    0.56440    0.26080    1.000
    H27      H        0.72350    0.88360    0.26740    1.000
    H28      H        0.71290    0.88770    0.17930    1.000
    H29      H        0.55110    0.64540    0.30160    1.000
    H30      H        0.41500    0.52490    0.34330    1.000
    H31      H        0.68990    0.48830    0.45290    1.000
    H32      H        0.82660    0.61030    0.41040    1.000
    H33      H        0.72960    0.81900    0.41190    1.000
    H34      H        0.84550    0.95350    0.45440    1.000
    H35      H        0.12230    0.95350    0.34420    1.000
    H36      H        0.00570    0.81540    0.30280    1.000
    H37      H        0.19030    0.56590    0.82620    1.000
    H38      H        0.16800    0.56440    0.73920    1.000
    H39      H        0.27650    0.88360    0.73260    1.000
    H40      H        0.28710    0.88770    0.82070    1.000
    H41      H        0.44890    0.64540    0.69840    1.000
    H42      H        0.58500    0.52490    0.65670    1.000
    H43      H        0.31010    0.48830    0.54710    1.000
    H44      H        0.17340    0.61030    0.58960    1.000
    H45      H        0.27040    0.81900    0.58810    1.000
    H46      H        0.15450    0.95350    0.54560    1.000
    H47      H        0.87770    0.95350    0.65580    1.000
    H48      H        0.99430    0.81540    0.69720    1.000
    C1       C        0.75790    0.23210    0.38641    1.000
    C2       C        0.76260    0.22890    0.33158    1.000
    C3       C        0.79520    0.13050    0.30760    1.000
    C4       C        0.80590    0.12940    0.25560    1.000
    C5       C        0.77840    0.22390    0.22749    1.000
    C6       C        0.74290    0.31990    0.25140    1.000
    C7       C        0.73590    0.32200    0.30420    1.000
    C8       C        0.70060    0.14280    0.14816    1.000
    C9       C        0.57850    0.11450    0.16775    1.000
    C10      C        0.49780    0.04240    0.14320    1.000
    C11      C        0.53850    0.99370    0.09726    1.000
    C12      C        0.66200    0.02020    0.07746    1.000
    C13      C        0.74320    0.09330    0.10270    1.000
    C14      C        0.45030    0.91950    0.07060    1.000
    C15      C        0.85570    0.30290    0.14697    1.000
    C16      C        0.80890    0.34570    0.10160    1.000
    C17      C        0.87740    0.42630    0.07633    1.000
    C18      C        0.99510    0.46790    0.09651    1.000
    C19      C        0.04360    0.42620    0.14210    1.000
    C20      C        0.97350    0.34400    0.16674    1.000
    C21      C        0.06970    0.55130    0.07030    1.000
    C22      C        0.24210    0.23210    0.61359    1.000
    C23      C        0.23740    0.22890    0.66842    1.000
    C24      C        0.20480    0.13050    0.69240    1.000
    C25      C        0.19410    0.12940    0.74440    1.000
    C26      C        0.22160    0.22390    0.77251    1.000
    C27      C        0.25710    0.31990    0.74860    1.000
    C28      C        0.26410    0.32200    0.69580    1.000
    C29      C        0.29940    0.14280    0.85184    1.000
    C30      C        0.42150    0.11450    0.83225    1.000
    C31      C        0.50220    0.04240    0.85680    1.000
    C32      C        0.46150    0.99370    0.90274    1.000
    C33      C        0.33800    0.02020    0.92254    1.000
    C34      C        0.25680    0.09330    0.89730    1.000
    C35      C        0.54970    0.91950    0.92940    1.000
    C36      C        0.14430    0.30290    0.85303    1.000
    C37      C        0.19110    0.34570    0.89840    1.000
    C38      C        0.12260    0.42630    0.92367    1.000
    C39      C        0.00490    0.46790    0.90349    1.000
    C40      C        0.95640    0.42620    0.85790    1.000
    C41      C        0.02650    0.34400    0.83326    1.000
    C42      C        0.93030    0.55130    0.92970    1.000
    C43      C        0.75790    0.73210    0.11359    1.000
    C44      C        0.76260    0.72890    0.16842    1.000
    C45      C        0.79520    0.63050    0.19240    1.000
    C46      C        0.80590    0.62940    0.24440    1.000
    C47      C        0.77840    0.72390    0.27251    1.000
    C48      C        0.74290    0.81990    0.24860    1.000
    C49      C        0.73590    0.82200    0.19580    1.000
    C50      C        0.70060    0.64280    0.35184    1.000
    C51      C        0.57850    0.61450    0.33225    1.000
    C52      C        0.49780    0.54240    0.35680    1.000
    C53      C        0.53850    0.49370    0.40274    1.000
    C54      C        0.66200    0.52020    0.42254    1.000
    C55      C        0.74320    0.59330    0.39730    1.000
    C56      C        0.45030    0.41950    0.42940    1.000
    C57      C        0.85570    0.80290    0.35303    1.000
    C58      C        0.80890    0.84570    0.39840    1.000
    C59      C        0.87740    0.92630    0.42367    1.000
    C60      C        0.99510    0.96790    0.40349    1.000
    C61      C        0.04360    0.92620    0.35790    1.000
    C62      C        0.97350    0.84400    0.33326    1.000
    C63      C        0.06970    0.05130    0.42970    1.000
    C64      C        0.24210    0.73210    0.88641    1.000
    C65      C        0.23740    0.72890    0.83158    1.000
    C66      C        0.20480    0.63050    0.80760    1.000
    C67      C        0.19410    0.62940    0.75560    1.000
    C68      C        0.22160    0.72390    0.72749    1.000
    C69      C        0.25710    0.81990    0.75140    1.000
    C70      C        0.26410    0.82200    0.80420    1.000
    C71      C        0.29940    0.64280    0.64816    1.000
    C72      C        0.42150    0.61450    0.66775    1.000
    C73      C        0.50220    0.54240    0.64320    1.000
    C74      C        0.46150    0.49370    0.59726    1.000
    C75      C        0.33800    0.52020    0.57746    1.000
    C76      C        0.25680    0.59330    0.60270    1.000
    C77      C        0.54970    0.41950    0.57060    1.000
    C78      C        0.14430    0.80290    0.64697    1.000
    C79      C        0.19110    0.84570    0.60160    1.000
    C80      C        0.12260    0.92630    0.57633    1.000
    C81      C        0.00490    0.96790    0.59651    1.000
    C82      C        0.95640    0.92620    0.64210    1.000
    C83      C        0.02650    0.84400    0.66674    1.000
    C84      C        0.93030    0.05130    0.57030    1.000
    N1       N        0.75480    0.23740    0.42897    1.000
    N2       N        0.78430    0.21950    0.17332    1.000
    N3       N        0.38290    0.86020    0.04960    1.000
    N4       N        0.12690    0.61720    0.04914    1.000
    N5       N        0.24520    0.23740    0.57103    1.000
    N6       N        0.21570    0.21950    0.82668    1.000
    N7       N        0.61710    0.86020    0.95040    1.000
    N8       N        0.87310    0.61720    0.95086    1.000
    N9       N        0.75480    0.73740    0.07103    1.000
    N10      N        0.78430    0.71950    0.32668    1.000
    N11      N        0.38290    0.36020    0.45040    1.000
    N12      N        0.12690    0.11720    0.45086    1.000
    N13      N        0.24520    0.73740    0.92897    1.000
    N14      N        0.21570    0.71950    0.67332    1.000
    N15      N        0.61710    0.36020    0.54960    1.000
    N16      N        0.87310    0.11720    0.54914    1.000
    C85      C        0.38880    0.34680    0.08510    1.000
    S1       S        0.46436    0.45549    0.12237    1.000
    O1       O        0.52970    0.39850    0.16207    1.000
    O2       O        0.35220    0.52210    0.13670    1.000
    O3       O        0.55070    0.50610    0.08630    1.000
    F1       F        0.31830    0.38280    0.04690    1.000
    F2       F        0.30710    0.28360    0.11220    1.000
    F3       F        0.47820    0.27450    0.06610    1.000
    C86      C        0.61120    0.34680    0.91490    1.000
    S2       S        0.53564    0.45549    0.87763    1.000
    O4       O        0.47030    0.39850    0.83793    1.000
    O5       O        0.64780    0.52210    0.86330    1.000
    O6       O        0.44930    0.50610    0.91370    1.000
    F4       F        0.68170    0.38280    0.95310    1.000
    F5       F        0.69290    0.28360    0.88780    1.000
    F6       F        0.52180    0.27450    0.93390    1.000
    C87      C        0.38880    0.84680    0.41490    1.000
    S3       S        0.46436    0.95549    0.37763    1.000
    O7       O        0.52970    0.89850    0.33793    1.000
    O8       O        0.35220    0.02210    0.36330    1.000
    O9       O        0.55070    0.00610    0.41370    1.000
    F7       F        0.31830    0.88280    0.45310    1.000
    F8       F        0.30710    0.78360    0.38780    1.000
    F9       F        0.47820    0.77450    0.43390    1.000
    C88      C        0.61120    0.84680    0.58510    1.000
    S4       S        0.53564    0.95549    0.62237    1.000
    O10      O        0.47030    0.89850    0.66207    1.000
    O11      O        0.64780    0.02210    0.63670    1.000
    O12      O        0.44930    0.00610    0.58630    1.000
    F10      F        0.68170    0.88280    0.54690    1.000
    F11      F        0.69290    0.78360    0.61220    1.000
    F12      F        0.52180    0.77450    0.56610    1.000
