# CIF file generated by openbabel 3.1.0, see https://openbabel.org
data_I
_chemical_name_common 'image0'
_cell_length_a 12.4818
_cell_length_b 21.763
_cell_length_c 16.509
_cell_angle_alpha 90
_cell_angle_beta 103.577
_cell_angle_gamma 90
_space_group_name_H-M_alt 'P 1'
_space_group_name_Hall 'P 1'
loop_
    _symmetry_equiv_pos_as_xyz
    x,y,z
loop_
    _atom_site_label
    _atom_site_type_symbol
    _atom_site_fract_x
    _atom_site_fract_y
    _atom_site_fract_z
    _atom_site_occupancy
    Ce1      Ce       0.97106    0.95262    0.09979    1.000
    O1       O        0.82180    0.94160    0.97700    1.000
    O2       O        0.86930    0.97660    0.86250    1.000
    O3       O        0.84310    0.04450    0.10890    1.000
    O4       O        0.92550    0.06210    0.00820    1.000
    O5       O        0.84670    0.91210    0.17530    1.000
    O6       O        0.87910    0.89340    0.31030    1.000
    H1       H        0.94250    0.02620    0.23420    1.000
    C1       C        0.79980    0.95670    0.90190    1.000
    C2       C        0.68090    0.95350    0.85490    1.000
    C3       C        0.59860    0.95150    0.90070    1.000
    H2       H        0.61820    0.95070    0.95860    1.000
    C4       C        0.48980    0.95080    0.85930    1.000
    H3       H        0.43580    0.95000    0.88960    1.000
    C5       C        0.45870    0.95120    0.77270    1.000
    C6       C        0.65330    0.95260    0.77170    1.000
    H4       H        0.70850    0.95280    0.74230    1.000
    C7       C        0.86370    0.07900    0.05560    1.000
    C8       C        0.81380    0.14250    0.04350    1.000
    C9       C        0.82440    0.17980    0.97990    1.000
    H5       H        0.86320    0.16570    0.94190    1.000
    C10      C        0.77880    0.23870    0.97010    1.000
    C11      C        0.70930    0.22100    0.09430    1.000
    H6       H        0.66960    0.23410    0.13230    1.000
    C12      C        0.75430    0.16310    0.10260    1.000
    H7       H        0.74620    0.13770    0.14600    1.000
    C13      C        0.81610    0.90060    0.24080    1.000
    C14      C        0.64940    0.89300    0.29780    1.000
    H8       H        0.69570    0.89200    0.35090    1.000
    C15      C        0.69380    0.89490    0.23110    1.000
    C16      C        0.62430    0.89560    0.15150    1.000
    H9       H        0.65390    0.89800    0.10500    1.000
    C17      C        0.51310    0.89270    0.14190    1.000
    H10      H        0.46760    0.89090    0.08860    1.000
    C18      C        0.46590    0.89250    0.21060    1.000
    Ce2      Ce       0.47106    0.45262    0.09979    1.000
    O7       O        0.32180    0.44160    0.97700    1.000
    O8       O        0.36930    0.47660    0.86250    1.000
    O9       O        0.34310    0.54450    0.10890    1.000
    O10      O        0.42550    0.56210    0.00820    1.000
    O11      O        0.34670    0.41210    0.17530    1.000
    O12      O        0.37910    0.39340    0.31030    1.000
    H11      H        0.44250    0.52620    0.23420    1.000
    C19      C        0.29980    0.45670    0.90190    1.000
    C20      C        0.18090    0.45350    0.85490    1.000
    C21      C        0.09860    0.45150    0.90070    1.000
    H12      H        0.11820    0.45070    0.95860    1.000
    C22      C        0.98980    0.45080    0.85930    1.000
    H13      H        0.93580    0.45000    0.88960    1.000
    C23      C        0.95870    0.45120    0.77270    1.000
    C24      C        0.15330    0.45260    0.77170    1.000
    H14      H        0.20850    0.45280    0.74230    1.000
    C25      C        0.36370    0.57900    0.05560    1.000
    C26      C        0.31380    0.64250    0.04350    1.000
    C27      C        0.32440    0.67980    0.97990    1.000
    H15      H        0.36320    0.66570    0.94190    1.000
    C28      C        0.27880    0.73870    0.97010    1.000
    C29      C        0.20930    0.72100    0.09430    1.000
    H16      H        0.16960    0.73410    0.13230    1.000
    C30      C        0.25430    0.66310    0.10260    1.000
    H17      H        0.24620    0.63770    0.14600    1.000
    C31      C        0.31610    0.40060    0.24080    1.000
    C32      C        0.14940    0.39300    0.29780    1.000
    H18      H        0.19570    0.39200    0.35090    1.000
    C33      C        0.19380    0.39490    0.23110    1.000
    C34      C        0.12430    0.39560    0.15150    1.000
    H19      H        0.15390    0.39800    0.10500    1.000
    C35      C        0.01310    0.39270    0.14190    1.000
    H20      H        0.96760    0.39090    0.08860    1.000
    C36      C        0.96590    0.39250    0.21060    1.000
    Ce3      Ce       0.02894    0.95262    0.40021    1.000
    O13      O        0.17820    0.94160    0.52300    1.000
    O14      O        0.13070    0.97660    0.63750    1.000
    O15      O        0.15690    0.04450    0.39110    1.000
    O16      O        0.07450    0.06210    0.49180    1.000
    O17      O        0.15330    0.91210    0.32470    1.000
    O18      O        0.12090    0.89340    0.18970    1.000
    H21      H        0.05750    0.02620    0.26580    1.000
    C37      C        0.20020    0.95670    0.59810    1.000
    C38      C        0.31910    0.95350    0.64510    1.000
    C39      C        0.40140    0.95150    0.59930    1.000
    H22      H        0.38180    0.95070    0.54140    1.000
    C40      C        0.51020    0.95080    0.64070    1.000
    H23      H        0.56420    0.95000    0.61040    1.000
    C41      C        0.54130    0.95120    0.72730    1.000
    C42      C        0.34670    0.95260    0.72830    1.000
    H24      H        0.29150    0.95280    0.75770    1.000
    C43      C        0.13630    0.07900    0.44440    1.000
    C44      C        0.18620    0.14250    0.45650    1.000
    C45      C        0.17560    0.17980    0.52010    1.000
    H25      H        0.13680    0.16570    0.55810    1.000
    C46      C        0.22120    0.23870    0.52990    1.000
    C47      C        0.29070    0.22100    0.40570    1.000
    H26      H        0.33040    0.23410    0.36770    1.000
    C48      C        0.24570    0.16310    0.39740    1.000
    H27      H        0.25380    0.13770    0.35400    1.000
    C49      C        0.18390    0.90060    0.25920    1.000
    C50      C        0.35060    0.89300    0.20220    1.000
    H28      H        0.30430    0.89200    0.14910    1.000
    C51      C        0.30620    0.89490    0.26890    1.000
    C52      C        0.37570    0.89560    0.34850    1.000
    H29      H        0.34610    0.89800    0.39500    1.000
    C53      C        0.48690    0.89270    0.35810    1.000
    H30      H        0.53240    0.89090    0.41140    1.000
    C54      C        0.53410    0.89250    0.28940    1.000
    Ce4      Ce       0.52894    0.45262    0.40021    1.000
    O19      O        0.67820    0.44160    0.52300    1.000
    O20      O        0.63070    0.47660    0.63750    1.000
    O21      O        0.65690    0.54450    0.39110    1.000
    O22      O        0.57450    0.56210    0.49180    1.000
    O23      O        0.65330    0.41210    0.32470    1.000
    O24      O        0.62090    0.39340    0.18970    1.000
    H31      H        0.55750    0.52620    0.26580    1.000
    C55      C        0.70020    0.45670    0.59810    1.000
    C56      C        0.81910    0.45350    0.64510    1.000
    C57      C        0.90140    0.45150    0.59930    1.000
    H32      H        0.88180    0.45070    0.54140    1.000
    C58      C        0.01020    0.45080    0.64070    1.000
    H33      H        0.06420    0.45000    0.61040    1.000
    C59      C        0.04130    0.45120    0.72730    1.000
    C60      C        0.84670    0.45260    0.72830    1.000
    H34      H        0.79150    0.45280    0.75770    1.000
    C61      C        0.63630    0.57900    0.44440    1.000
    C62      C        0.68620    0.64250    0.45650    1.000
    C63      C        0.67560    0.67980    0.52010    1.000
    H35      H        0.63680    0.66570    0.55810    1.000
    C64      C        0.72120    0.73870    0.52990    1.000
    C65      C        0.79070    0.72100    0.40570    1.000
    H36      H        0.83040    0.73410    0.36770    1.000
    C66      C        0.74570    0.66310    0.39740    1.000
    H37      H        0.75380    0.63770    0.35400    1.000
    C67      C        0.68390    0.40060    0.25920    1.000
    C68      C        0.85060    0.39300    0.20220    1.000
    H38      H        0.80430    0.39200    0.14910    1.000
    C69      C        0.80620    0.39490    0.26890    1.000
    C70      C        0.87570    0.39560    0.34850    1.000
    H39      H        0.84610    0.39800    0.39500    1.000
    C71      C        0.98690    0.39270    0.35810    1.000
    H40      H        0.03240    0.39090    0.41140    1.000
    C72      C        0.03410    0.39250    0.28940    1.000
    Ce5      Ce       0.02894    0.04738    0.90021    1.000
    O25      O        0.17820    0.05840    0.02300    1.000
    O26      O        0.13070    0.02340    0.13750    1.000
    O27      O        0.15690    0.95550    0.89110    1.000
    O28      O        0.07450    0.93790    0.99180    1.000
    O29      O        0.15330    0.08790    0.82470    1.000
    O30      O        0.12090    0.10660    0.68970    1.000
    H41      H        0.05750    0.97380    0.76580    1.000
    C73      C        0.20020    0.04330    0.09810    1.000
    C74      C        0.31910    0.04650    0.14510    1.000
    C75      C        0.40140    0.04850    0.09930    1.000
    H42      H        0.38180    0.04930    0.04140    1.000
    C76      C        0.51020    0.04920    0.14070    1.000
    H43      H        0.56420    0.05000    0.11040    1.000
    C77      C        0.54130    0.04880    0.22730    1.000
    C78      C        0.34670    0.04740    0.22830    1.000
    H44      H        0.29150    0.04720    0.25770    1.000
    C79      C        0.13630    0.92100    0.94440    1.000
    C80      C        0.18620    0.85750    0.95650    1.000
    C81      C        0.17560    0.82020    0.02010    1.000
    H45      H        0.13680    0.83430    0.05810    1.000
    C82      C        0.22120    0.76130    0.02990    1.000
    C83      C        0.29070    0.77900    0.90570    1.000
    H46      H        0.33040    0.76590    0.86770    1.000
    C84      C        0.24570    0.83690    0.89740    1.000
    H47      H        0.25380    0.86230    0.85400    1.000
    C85      C        0.18390    0.09940    0.75920    1.000
    C86      C        0.35060    0.10700    0.70220    1.000
    H48      H        0.30430    0.10800    0.64910    1.000
    C87      C        0.30620    0.10510    0.76890    1.000
    C88      C        0.37570    0.10440    0.84850    1.000
    H49      H        0.34610    0.10200    0.89500    1.000
    C89      C        0.48690    0.10730    0.85810    1.000
    H50      H        0.53240    0.10910    0.91140    1.000
    C90      C        0.53410    0.10750    0.78940    1.000
    Ce6      Ce       0.52894    0.54738    0.90021    1.000
    O31      O        0.67820    0.55840    0.02300    1.000
    O32      O        0.63070    0.52340    0.13750    1.000
    O33      O        0.65690    0.45550    0.89110    1.000
    O34      O        0.57450    0.43790    0.99180    1.000
    O35      O        0.65330    0.58790    0.82470    1.000
    O36      O        0.62090    0.60660    0.68970    1.000
    H51      H        0.55750    0.47380    0.76580    1.000
    C91      C        0.70020    0.54330    0.09810    1.000
    C92      C        0.81910    0.54650    0.14510    1.000
    C93      C        0.90140    0.54850    0.09930    1.000
    H52      H        0.88180    0.54930    0.04140    1.000
    C94      C        0.01020    0.54920    0.14070    1.000
    H53      H        0.06420    0.55000    0.11040    1.000
    C95      C        0.04130    0.54880    0.22730    1.000
    C96      C        0.84670    0.54740    0.22830    1.000
    H54      H        0.79150    0.54720    0.25770    1.000
    C97      C        0.63630    0.42100    0.94440    1.000
    C98      C        0.68620    0.35750    0.95650    1.000
    C99      C        0.67560    0.32020    0.02010    1.000
    H55      H        0.63680    0.33430    0.05810    1.000
    C100     C        0.72120    0.26130    0.02990    1.000
    C101     C        0.79070    0.27900    0.90570    1.000
    H56      H        0.83040    0.26590    0.86770    1.000
    C102     C        0.74570    0.33690    0.89740    1.000
    H57      H        0.75380    0.36230    0.85400    1.000
    C103     C        0.68390    0.59940    0.75920    1.000
    C104     C        0.85060    0.60700    0.70220    1.000
    H58      H        0.80430    0.60800    0.64910    1.000
    C105     C        0.80620    0.60510    0.76890    1.000
    C106     C        0.87570    0.60440    0.84850    1.000
    H59      H        0.84610    0.60200    0.89500    1.000
    C107     C        0.98690    0.60730    0.85810    1.000
    H60      H        0.03240    0.60910    0.91140    1.000
    C108     C        0.03410    0.60750    0.78940    1.000
    Ce7      Ce       0.97106    0.04738    0.59979    1.000
    O37      O        0.82180    0.05840    0.47700    1.000
    O38      O        0.86930    0.02340    0.36250    1.000
    O39      O        0.84310    0.95550    0.60890    1.000
    O40      O        0.92550    0.93790    0.50820    1.000
    O41      O        0.84670    0.08790    0.67530    1.000
    O42      O        0.87910    0.10660    0.81030    1.000
    H61      H        0.94250    0.97380    0.73420    1.000
    C109     C        0.79980    0.04330    0.40190    1.000
    C110     C        0.68090    0.04650    0.35490    1.000
    C111     C        0.59860    0.04850    0.40070    1.000
    H62      H        0.61820    0.04930    0.45860    1.000
    C112     C        0.48980    0.04920    0.35930    1.000
    H63      H        0.43580    0.05000    0.38960    1.000
    C113     C        0.45870    0.04880    0.27270    1.000
    C114     C        0.65330    0.04740    0.27170    1.000
    H64      H        0.70850    0.04720    0.24230    1.000
    C115     C        0.86370    0.92100    0.55560    1.000
    C116     C        0.81380    0.85750    0.54350    1.000
    C117     C        0.82440    0.82020    0.47990    1.000
    H65      H        0.86320    0.83430    0.44190    1.000
    C118     C        0.77880    0.76130    0.47010    1.000
    C119     C        0.70930    0.77900    0.59430    1.000
    H66      H        0.66960    0.76590    0.63230    1.000
    C120     C        0.75430    0.83690    0.60260    1.000
    H67      H        0.74620    0.86230    0.64600    1.000
    C121     C        0.81610    0.09940    0.74080    1.000
    C122     C        0.64940    0.10700    0.79780    1.000
    H68      H        0.69570    0.10800    0.85090    1.000
    C123     C        0.69380    0.10510    0.73110    1.000
    C124     C        0.62430    0.10440    0.65150    1.000
    H69      H        0.65390    0.10200    0.60500    1.000
    C125     C        0.51310    0.10730    0.64190    1.000
    H70      H        0.46760    0.10910    0.58860    1.000
    C126     C        0.46590    0.10750    0.71060    1.000
    Ce8      Ce       0.47106    0.54738    0.59979    1.000
    O43      O        0.32180    0.55840    0.47700    1.000
    O44      O        0.36930    0.52340    0.36250    1.000
    O45      O        0.34310    0.45550    0.60890    1.000
    O46      O        0.42550    0.43790    0.50820    1.000
    O47      O        0.34670    0.58790    0.67530    1.000
    O48      O        0.37910    0.60660    0.81030    1.000
    H71      H        0.44250    0.47380    0.73420    1.000
    C127     C        0.29980    0.54330    0.40190    1.000
    C128     C        0.18090    0.54650    0.35490    1.000
    C129     C        0.09860    0.54850    0.40070    1.000
    H72      H        0.11820    0.54930    0.45860    1.000
    C130     C        0.98980    0.54920    0.35930    1.000
    H73      H        0.93580    0.55000    0.38960    1.000
    C131     C        0.95870    0.54880    0.27270    1.000
    C132     C        0.15330    0.54740    0.27170    1.000
    H74      H        0.20850    0.54720    0.24230    1.000
    C133     C        0.36370    0.42100    0.55560    1.000
    C134     C        0.31380    0.35750    0.54350    1.000
    C135     C        0.32440    0.32020    0.47990    1.000
    H75      H        0.36320    0.33430    0.44190    1.000
    C136     C        0.27880    0.26130    0.47010    1.000
    C137     C        0.20930    0.27900    0.59430    1.000
    H76      H        0.16960    0.26590    0.63230    1.000
    C138     C        0.25430    0.33690    0.60260    1.000
    H77      H        0.24620    0.36230    0.64600    1.000
    C139     C        0.31610    0.59940    0.74080    1.000
    C140     C        0.14940    0.60700    0.79780    1.000
    H78      H        0.19570    0.60800    0.85090    1.000
    C141     C        0.19380    0.60510    0.73110    1.000
    C142     C        0.12430    0.60440    0.65150    1.000
    H79      H        0.15390    0.60200    0.60500    1.000
    C143     C        0.01310    0.60730    0.64190    1.000
    H80      H        0.96760    0.60910    0.58860    1.000
    C144     C        0.96590    0.60750    0.71060    1.000
    O49      O        0.00000    0.00430    0.25000    1.000
    O50      O        0.50000    0.50430    0.25000    1.000
    O51      O        0.00000    0.99570    0.75000    1.000
    O52      O        0.50000    0.49570    0.75000    1.000
