# CIF file generated by openbabel 3.1.0, see https://openbabel.org
data_I
_chemical_name_common 'image0'
_cell_length_a 18.6569
_cell_length_b 18.7359
_cell_length_c 9.4331
_cell_angle_alpha 90
_cell_angle_beta 94.4243
_cell_angle_gamma 90
_space_group_name_H-M_alt 'P 1'
_space_group_name_Hall 'P 1'
loop_
    _symmetry_equiv_pos_as_xyz
    x,y,z
loop_
    _atom_site_label
    _atom_site_type_symbol
    _atom_site_fract_x
    _atom_site_fract_y
    _atom_site_fract_z
    _atom_site_occupancy
    O1       O        0.32222    0.17891    0.39185    1.000
    O2       O        0.17308    0.17423    0.60421    1.000
    O3       O        0.18425    0.17502    0.36879    1.000
    O4       O        0.30364    0.17346    0.62489    1.000
    C1       C        0.15350    0.15029    0.47794    1.000
    C2       C        0.09756    0.09838    0.46894    1.000
    C3       C        0.05618    0.07613    0.58229    1.000
    H1       H        0.06358    0.10361    0.68356    1.000
    C4       C        0.41760    0.05685    0.67237    1.000
    H2       H        0.39318    0.07283    0.76765    1.000
    C5       C        0.96281    0.99761    0.67601    1.000
    H3       H        0.96796    0.02589    0.77625    1.000
    C6       C        0.00480    0.01872    0.56514    1.000
    H4       H        0.35023    0.29726    0.10768    1.000
    H5       H        0.34964    0.20273    0.86052    1.000
    C7       C        0.33499    0.14871    0.51580    1.000
    C8       C        0.39103    0.08547    0.53988    1.000
    C9       C        0.42587    0.06088    0.41920    1.000
    H6       H        0.40555    0.07921    0.31534    1.000
    C10      C        0.08622    0.06015    0.34006    1.000
    H7       H        0.11609    0.07476    0.25052    1.000
    C11      C        0.47656    0.00876    0.68593    1.000
    H8       H        0.49414    0.98921    0.79079    1.000
    C12      C        0.48699    0.01308    0.43261    1.000
    C13      C        0.20885    0.18669    0.04911    1.000
    H9       H        0.23438    0.13682    0.09233    1.000
    H10      H        0.15215    0.18492    0.07849    1.000
    C14      C        0.20782    0.18694    0.87816    1.000
    H11      H        0.15061    0.18568    0.83379    1.000
    H12      H        0.23222    0.13721    0.84010    1.000
    O5       O        0.67778    0.67891    0.60815    1.000
    O6       O        0.82692    0.67423    0.39579    1.000
    O7       O        0.81575    0.67502    0.63121    1.000
    O8       O        0.69636    0.67346    0.37511    1.000
    C15      C        0.84650    0.65029    0.52206    1.000
    C16      C        0.90244    0.59838    0.53106    1.000
    C17      C        0.94382    0.57613    0.41771    1.000
    H13      H        0.93642    0.60361    0.31644    1.000
    C18      C        0.58240    0.55685    0.32763    1.000
    H14      H        0.60682    0.57283    0.23235    1.000
    C19      C        0.03719    0.49761    0.32399    1.000
    H15      H        0.03204    0.52589    0.22375    1.000
    C20      C        0.99520    0.51872    0.43486    1.000
    H16      H        0.64977    0.79726    0.89232    1.000
    H17      H        0.65036    0.70273    0.13948    1.000
    C21      C        0.66501    0.64871    0.48420    1.000
    C22      C        0.60897    0.58547    0.46012    1.000
    C23      C        0.57413    0.56088    0.58080    1.000
    H18      H        0.59445    0.57921    0.68466    1.000
    C24      C        0.91378    0.56015    0.65994    1.000
    H19      H        0.88391    0.57476    0.74948    1.000
    C25      C        0.52344    0.50876    0.31407    1.000
    H20      H        0.50586    0.48921    0.20921    1.000
    C26      C        0.51301    0.51308    0.56739    1.000
    C27      C        0.79115    0.68669    0.95089    1.000
    H21      H        0.76562    0.63682    0.90767    1.000
    H22      H        0.84785    0.68492    0.92151    1.000
    C28      C        0.79218    0.68694    0.12184    1.000
    H23      H        0.84939    0.68568    0.16621    1.000
    H24      H        0.76778    0.63721    0.15990    1.000
    O9       O        0.67778    0.82109    0.60815    1.000
    O10      O        0.82692    0.82577    0.39579    1.000
    O11      O        0.81575    0.82498    0.63121    1.000
    O12      O        0.69636    0.82654    0.37511    1.000
    C29      C        0.84650    0.84971    0.52206    1.000
    C30      C        0.90244    0.90162    0.53106    1.000
    C31      C        0.94382    0.92387    0.41771    1.000
    H25      H        0.93642    0.89639    0.31644    1.000
    C32      C        0.58240    0.94315    0.32763    1.000
    H26      H        0.60682    0.92717    0.23235    1.000
    C33      C        0.03719    0.00239    0.32399    1.000
    H27      H        0.03204    0.97411    0.22375    1.000
    C34      C        0.99520    0.98128    0.43486    1.000
    H28      H        0.64977    0.70274    0.89232    1.000
    H29      H        0.65036    0.79727    0.13948    1.000
    C35      C        0.66501    0.85129    0.48420    1.000
    C36      C        0.60897    0.91453    0.46012    1.000
    C37      C        0.57413    0.93912    0.58080    1.000
    H30      H        0.59445    0.92079    0.68466    1.000
    C38      C        0.91378    0.93985    0.65994    1.000
    H31      H        0.88391    0.92524    0.74948    1.000
    C39      C        0.52344    0.99124    0.31407    1.000
    H32      H        0.50586    0.01079    0.20921    1.000
    C40      C        0.51301    0.98692    0.56739    1.000
    C41      C        0.79115    0.81331    0.95089    1.000
    H33      H        0.76562    0.86318    0.90767    1.000
    H34      H        0.84785    0.81508    0.92151    1.000
    C42      C        0.79218    0.81306    0.12184    1.000
    H35      H        0.84939    0.81432    0.16621    1.000
    H36      H        0.76778    0.86279    0.15990    1.000
    O13      O        0.32222    0.32109    0.39185    1.000
    O14      O        0.17308    0.32577    0.60421    1.000
    O15      O        0.18425    0.32498    0.36879    1.000
    O16      O        0.30364    0.32654    0.62489    1.000
    C43      C        0.15350    0.34971    0.47794    1.000
    C44      C        0.09756    0.40162    0.46894    1.000
    C45      C        0.05618    0.42387    0.58229    1.000
    H37      H        0.06358    0.39639    0.68356    1.000
    C46      C        0.41760    0.44315    0.67237    1.000
    H38      H        0.39318    0.42717    0.76765    1.000
    C47      C        0.96281    0.50239    0.67601    1.000
    H39      H        0.96796    0.47411    0.77625    1.000
    C48      C        0.00480    0.48128    0.56514    1.000
    H40      H        0.35023    0.20274    0.10768    1.000
    H41      H        0.34964    0.29727    0.86052    1.000
    C49      C        0.33499    0.35129    0.51580    1.000
    C50      C        0.39103    0.41453    0.53988    1.000
    C51      C        0.42587    0.43912    0.41920    1.000
    H42      H        0.40555    0.42079    0.31534    1.000
    C52      C        0.08622    0.43985    0.34006    1.000
    H43      H        0.11609    0.42524    0.25052    1.000
    C53      C        0.47656    0.49124    0.68593    1.000
    H44      H        0.49414    0.51079    0.79079    1.000
    C54      C        0.48699    0.48692    0.43261    1.000
    C55      C        0.20885    0.31331    0.04911    1.000
    H45      H        0.23438    0.36318    0.09233    1.000
    H46      H        0.15215    0.31508    0.07849    1.000
    C56      C        0.20782    0.31306    0.87816    1.000
    H47      H        0.15061    0.31432    0.83379    1.000
    H48      H        0.23222    0.36279    0.84010    1.000
    Ni1      Ni       0.23755    0.25000    0.61872    1.000
    Ni2      Ni       0.25551    0.25000    0.34987    1.000
    N1       N        0.24503    0.25000    0.81946    1.000
    N2       N        0.24617    0.25000    0.11850    1.000
    C57      C        0.31977    0.25000    0.06489    1.000
    C58      C        0.31920    0.25000    0.89420    1.000
    Ni3      Ni       0.76245    0.75000    0.38128    1.000
    Ni4      Ni       0.74449    0.75000    0.65013    1.000
    N3       N        0.75497    0.75000    0.18054    1.000
    N4       N        0.75383    0.75000    0.88150    1.000
    C59      C        0.68023    0.75000    0.93511    1.000
    C60      C        0.68080    0.75000    0.10580    1.000
