# CIF file generated by openbabel 3.1.0, see https://openbabel.org
data_I
_chemical_name_common 'image0'
_cell_length_a 16.682
_cell_length_b 21.662
_cell_length_c 27.674
_cell_angle_alpha 90
_cell_angle_beta 96.49
_cell_angle_gamma 90
_space_group_name_H-M_alt 'P 1'
_space_group_name_Hall 'P 1'
loop_
    _symmetry_equiv_pos_as_xyz
    x,y,z
loop_
    _atom_site_label
    _atom_site_type_symbol
    _atom_site_fract_x
    _atom_site_fract_y
    _atom_site_fract_z
    _atom_site_occupancy
    W1       W        0.76300    0.90400    0.13530    1.000
    W2       W        0.14338    0.00219    0.41560    1.000
    Cu1      Cu       0.88260    0.98464    0.17032    1.000
    Cu2      Cu       0.69246    0.93186    0.21319    1.000
    Cu3      Cu       0.84101    0.88166    0.05928    1.000
    Cu4      Cu       0.25249    0.02045    0.49208    1.000
    Cu5      Cu       0.04578    0.98679    0.33377    1.000
    Cu6      Cu       0.25973    0.02594    0.35512    1.000
    Cu7      Cu       0.13949    0.16634    0.22166    1.000
    Cu8      Cu       0.03685    0.15274    0.09400    1.000
    Cu9      Cu       0.55092    0.97148    0.35889    1.000
    S1       S        0.74408    0.99904    0.16363    1.000
    S2       S        0.70810    0.83810    0.18235    1.000
    S3       S        0.70834    0.89670    0.05891    1.000
    S4       S        0.89555    0.88701    0.13658    1.000
    S5       S        0.15760    0.94688    0.48295    1.000
    S6       S        0.23381    0.07930    0.42533    1.000
    S7       S        0.16854    0.94405    0.35210    1.000
    S8       S        0.02061    0.03975    0.39965    1.000
    S9       S        0.16175    0.16560    0.14354    1.000
    N1       N        0.93520    0.05270    0.13840    1.000
    N2       N        0.63830    0.94910    0.26840    1.000
    N3       N        0.92720    0.85800    0.97010    1.000
    N4       N        0.37350    0.03130    0.58150    1.000
    N5       N        0.93530    0.97580    0.23940    1.000
    N6       N        0.37240    0.00210    0.35390    1.000
    N7       N        0.21330    0.08170    0.30120    1.000
    C1       C        0.97200    0.08980    0.11980    1.000
    C2       C        0.60560    0.95860    0.30230    1.000
    C3       C        0.89410    0.86710    0.00460    1.000
    C4       C        0.32850    0.02930    0.54780    1.000
    C5       C        0.97560    0.97830    0.27550    1.000
    C6       C        0.44010    0.98970    0.35600    1.000
    C7       C        0.18180    0.11150    0.27110    1.000
    W3       W        0.23700    0.40400    0.86470    1.000
    W4       W        0.85662    0.50219    0.58440    1.000
    Cu10     Cu       0.11740    0.48464    0.82968    1.000
    Cu11     Cu       0.30754    0.43186    0.78681    1.000
    Cu12     Cu       0.15899    0.38166    0.94072    1.000
    Cu13     Cu       0.74751    0.52045    0.50792    1.000
    Cu14     Cu       0.95422    0.48679    0.66623    1.000
    Cu15     Cu       0.74027    0.52594    0.64488    1.000
    Cu16     Cu       0.86051    0.66634    0.77834    1.000
    Cu17     Cu       0.96315    0.65274    0.90600    1.000
    Cu18     Cu       0.44908    0.47148    0.64111    1.000
    S10      S        0.25592    0.49904    0.83637    1.000
    S11      S        0.29190    0.33810    0.81765    1.000
    S12      S        0.29166    0.39670    0.94109    1.000
    S13      S        0.10445    0.38701    0.86342    1.000
    S14      S        0.84240    0.44688    0.51705    1.000
    S15      S        0.76619    0.57930    0.57467    1.000
    S16      S        0.83146    0.44405    0.64790    1.000
    S17      S        0.97939    0.53975    0.60035    1.000
    S18      S        0.83825    0.66560    0.85646    1.000
    N8       N        0.06480    0.55270    0.86160    1.000
    N9       N        0.36170    0.44910    0.73160    1.000
    N10      N        0.07280    0.35800    0.02990    1.000
    N11      N        0.62650    0.53130    0.41850    1.000
    N12      N        0.06470    0.47580    0.76060    1.000
    N13      N        0.62760    0.50210    0.64610    1.000
    N14      N        0.78670    0.58170    0.69880    1.000
    C8       C        0.02800    0.58980    0.88020    1.000
    C9       C        0.39440    0.45860    0.69770    1.000
    C10      C        0.10590    0.36710    0.99540    1.000
    C11      C        0.67150    0.52930    0.45220    1.000
    C12      C        0.02440    0.47830    0.72450    1.000
    C13      C        0.55990    0.48970    0.64400    1.000
    C14      C        0.81820    0.61150    0.72890    1.000
    W5       W        0.23700    0.09600    0.86470    1.000
    W6       W        0.85662    0.99781    0.58440    1.000
    Cu19     Cu       0.11740    0.01536    0.82968    1.000
    Cu20     Cu       0.30754    0.06814    0.78681    1.000
    Cu21     Cu       0.15899    0.11834    0.94072    1.000
    Cu22     Cu       0.74751    0.97955    0.50792    1.000
    Cu23     Cu       0.95422    0.01321    0.66623    1.000
    Cu24     Cu       0.74027    0.97406    0.64488    1.000
    Cu25     Cu       0.86051    0.83366    0.77834    1.000
    Cu26     Cu       0.96315    0.84726    0.90600    1.000
    Cu27     Cu       0.44908    0.02852    0.64111    1.000
    S19      S        0.25592    0.00096    0.83637    1.000
    S20      S        0.29190    0.16190    0.81765    1.000
    S21      S        0.29166    0.10330    0.94109    1.000
    S22      S        0.10445    0.11299    0.86342    1.000
    S23      S        0.84240    0.05312    0.51705    1.000
    S24      S        0.76619    0.92070    0.57467    1.000
    S25      S        0.83146    0.05595    0.64790    1.000
    S26      S        0.97939    0.96025    0.60035    1.000
    S27      S        0.83825    0.83440    0.85646    1.000
    N15      N        0.06480    0.94730    0.86160    1.000
    N16      N        0.36170    0.05090    0.73160    1.000
    N17      N        0.07280    0.14200    0.02990    1.000
    N18      N        0.62650    0.96870    0.41850    1.000
    N19      N        0.06470    0.02420    0.76060    1.000
    N20      N        0.62760    0.99790    0.64610    1.000
    N21      N        0.78670    0.91830    0.69880    1.000
    C15      C        0.02800    0.91020    0.88020    1.000
    C16      C        0.39440    0.04140    0.69770    1.000
    C17      C        0.10590    0.13290    0.99540    1.000
    C18      C        0.67150    0.97070    0.45220    1.000
    C19      C        0.02440    0.02170    0.72450    1.000
    C20      C        0.55990    0.01030    0.64400    1.000
    C21      C        0.81820    0.88850    0.72890    1.000
    W7       W        0.76300    0.59600    0.13530    1.000
    W8       W        0.14338    0.49781    0.41560    1.000
    Cu28     Cu       0.88260    0.51536    0.17032    1.000
    Cu29     Cu       0.69246    0.56814    0.21319    1.000
    Cu30     Cu       0.84101    0.61834    0.05928    1.000
    Cu31     Cu       0.25249    0.47955    0.49208    1.000
    Cu32     Cu       0.04578    0.51321    0.33377    1.000
    Cu33     Cu       0.25973    0.47406    0.35512    1.000
    Cu34     Cu       0.13949    0.33366    0.22166    1.000
    Cu35     Cu       0.03685    0.34726    0.09400    1.000
    Cu36     Cu       0.55092    0.52852    0.35889    1.000
    S28      S        0.74408    0.50096    0.16363    1.000
    S29      S        0.70810    0.66190    0.18235    1.000
    S30      S        0.70834    0.60330    0.05891    1.000
    S31      S        0.89555    0.61299    0.13658    1.000
    S32      S        0.15760    0.55312    0.48295    1.000
    S33      S        0.23381    0.42070    0.42533    1.000
    S34      S        0.16854    0.55595    0.35210    1.000
    S35      S        0.02061    0.46025    0.39965    1.000
    S36      S        0.16175    0.33440    0.14354    1.000
    N22      N        0.93520    0.44730    0.13840    1.000
    N23      N        0.63830    0.55090    0.26840    1.000
    N24      N        0.92720    0.64200    0.97010    1.000
    N25      N        0.37350    0.46870    0.58150    1.000
    N26      N        0.93530    0.52420    0.23940    1.000
    N27      N        0.37240    0.49790    0.35390    1.000
    N28      N        0.21330    0.41830    0.30120    1.000
    C22      C        0.97200    0.41020    0.11980    1.000
    C23      C        0.60560    0.54140    0.30230    1.000
    C24      C        0.89410    0.63290    0.00460    1.000
    C25      C        0.32850    0.47070    0.54780    1.000
    C26      C        0.97560    0.52170    0.27550    1.000
    C27      C        0.44010    0.51030    0.35600    1.000
    C28      C        0.18180    0.38850    0.27110    1.000
    W9       W        0.09051    0.25000    0.15521    1.000
    S37      S        0.06420    0.25000    0.23338    1.000
    S38      S        0.97760    0.25000    0.10544    1.000
    W10      W        0.90949    0.75000    0.84479    1.000
    S39      S        0.93580    0.75000    0.76662    1.000
    S40      S        0.02240    0.75000    0.89456    1.000
