# CIF file generated by openbabel 3.1.0, see https://openbabel.org
data_I
_chemical_name_common 'VATYAR_clean'
_cell_length_a 8.507
_cell_length_b 9.762
_cell_length_c 10.249
_cell_angle_alpha 62.378
_cell_angle_beta 76.681
_cell_angle_gamma 73.858
_space_group_name_H-M_alt 'P 1'
_space_group_name_Hall 'P 1'
loop_
    _symmetry_equiv_pos_as_xyz
    x,y,z
loop_
    _atom_site_label
    _atom_site_type_symbol
    _atom_site_fract_x
    _atom_site_fract_y
    _atom_site_fract_z
    _atom_site_occupancy
    Nd1      Nd       0.66614    0.63076    0.16070    1.000
    Nd2      Nd       0.33386    0.36924    0.83930    1.000
    C1       C        0.01580    0.58460    0.95280    1.000
    C2       C        0.57450    0.02160    0.01090    1.000
    C3       C        0.44690    0.58290    0.48420    1.000
    C4       C        0.44290    0.46250    0.07340    1.000
    C5       C        0.98420    0.41540    0.04720    1.000
    C6       C        0.42550    0.97840    0.98910    1.000
    C7       C        0.55310    0.41710    0.51580    1.000
    C8       C        0.55710    0.53750    0.92660    1.000
    O1       O        0.92430    0.68950    0.98890    1.000
    O2       O        0.68580    0.90910    0.07540    1.000
    O3       O        0.46870    0.68890    0.35530    1.000
    O4       O        0.45830    0.48450    0.18000    1.000
    O5       O        0.57350    0.16560    0.96260    1.000
    O6       O        0.13020    0.60370    0.84810    1.000
    O7       O        0.34660    0.38940    0.07190    1.000
    O8       O        0.34750    0.59850    0.58920    1.000
    O9       O        0.07570    0.31050    0.01110    1.000
    O10      O        0.31420    0.09090    0.92460    1.000
    O11      O        0.53130    0.31110    0.64470    1.000
    O12      O        0.54170    0.51550    0.82000    1.000
    O13      O        0.42650    0.83440    0.03740    1.000
    O14      O        0.86980    0.39630    0.15190    1.000
    O15      O        0.65340    0.61060    0.92810    1.000
    O16      O        0.65250    0.40150    0.41080    1.000
