# CIF file generated by openbabel 3.1.0, see https://openbabel.org
data_I
_chemical_name_common 'image0'
_cell_length_a 14.639
_cell_length_b 12.852
_cell_length_c 12.8392
_cell_angle_alpha 90
_cell_angle_beta 104.29
_cell_angle_gamma 90
_space_group_name_H-M_alt 'P 1'
_space_group_name_Hall 'P 1'
loop_
    _symmetry_equiv_pos_as_xyz
    x,y,z
loop_
    _atom_site_label
    _atom_site_type_symbol
    _atom_site_fract_x
    _atom_site_fract_y
    _atom_site_fract_z
    _atom_site_occupancy
    Er1      Er       0.23611    0.06735    0.32048    1.000
    O1       O        0.19590    0.01470    0.96710    1.000
    O2       O        0.19240    0.05110    0.13350    1.000
    O3       O        0.07710    0.07030    0.27290    1.000
    O4       O        0.39000    0.06200    0.43200    1.000
    O5       O        0.22580    0.88770    0.29530    1.000
    O6       O        0.24130    0.72590    0.25110    1.000
    O7       O        0.38390    0.04070    0.27420    1.000
    O8       O        0.28840    0.18500    0.45680    1.000
    C1       C        0.23050    0.01280    0.06370    1.000
    H1       H        0.28900    0.98110    0.08780    1.000
    C2       C        0.26670    0.81580    0.26510    1.000
    H2       H        0.32450    0.83160    0.25100    1.000
    C3       C        0.42510    0.02010    0.36600    1.000
    H3       H        0.47760    0.97680    0.38400    1.000
    O9       O        0.38500    0.98700    0.43100    1.000
    O10      O        0.19490    0.20120    0.43100    1.000
    H4       H        0.18520    0.26120    0.48210    1.000
    Er2      Er       0.73611    0.56735    0.32048    1.000
    O11      O        0.69590    0.51470    0.96710    1.000
    O12      O        0.69240    0.55110    0.13350    1.000
    O13      O        0.57710    0.57030    0.27290    1.000
    O14      O        0.89000    0.56200    0.43200    1.000
    O15      O        0.72580    0.38770    0.29530    1.000
    O16      O        0.74130    0.22590    0.25110    1.000
    O17      O        0.88390    0.54070    0.27420    1.000
    O18      O        0.78840    0.68500    0.45680    1.000
    C4       C        0.73050    0.51280    0.06370    1.000
    H5       H        0.78900    0.48110    0.08780    1.000
    C5       C        0.76670    0.31580    0.26510    1.000
    H6       H        0.82450    0.33160    0.25100    1.000
    C6       C        0.92510    0.52010    0.36600    1.000
    H7       H        0.97760    0.47680    0.38400    1.000
    O19      O        0.88500    0.48700    0.43100    1.000
    O20      O        0.69490    0.70120    0.43100    1.000
    H8       H        0.68520    0.76120    0.48210    1.000
    Er3      Er       0.76389    0.06735    0.17952    1.000
    O21      O        0.80410    0.01470    0.53290    1.000
    O22      O        0.80760    0.05110    0.36650    1.000
    O23      O        0.92290    0.07030    0.22710    1.000
    O24      O        0.61000    0.06200    0.06800    1.000
    O25      O        0.77420    0.88770    0.20470    1.000
    O26      O        0.75870    0.72590    0.24890    1.000
    O27      O        0.61610    0.04070    0.22580    1.000
    O28      O        0.71160    0.18500    0.04320    1.000
    C7       C        0.76950    0.01280    0.43630    1.000
    H9       H        0.71100    0.98110    0.41220    1.000
    C8       C        0.73330    0.81580    0.23490    1.000
    H10      H        0.67550    0.83160    0.24900    1.000
    C9       C        0.57490    0.02010    0.13400    1.000
    H11      H        0.52240    0.97680    0.11600    1.000
    O29      O        0.61500    0.98700    0.06900    1.000
    O30      O        0.80510    0.20120    0.06900    1.000
    H12      H        0.81480    0.26120    0.01790    1.000
    Er4      Er       0.26389    0.56735    0.17952    1.000
    O31      O        0.30410    0.51470    0.53290    1.000
    O32      O        0.30760    0.55110    0.36650    1.000
    O33      O        0.42290    0.57030    0.22710    1.000
    O34      O        0.11000    0.56200    0.06800    1.000
    O35      O        0.27420    0.38770    0.20470    1.000
    O36      O        0.25870    0.22590    0.24890    1.000
    O37      O        0.11610    0.54070    0.22580    1.000
    O38      O        0.21160    0.68500    0.04320    1.000
    C10      C        0.26950    0.51280    0.43630    1.000
    H13      H        0.21100    0.48110    0.41220    1.000
    C11      C        0.23330    0.31580    0.23490    1.000
    H14      H        0.17550    0.33160    0.24900    1.000
    C12      C        0.07490    0.52010    0.13400    1.000
    H15      H        0.02240    0.47680    0.11600    1.000
    O39      O        0.11500    0.48700    0.06900    1.000
    O40      O        0.30510    0.70120    0.06900    1.000
    H16      H        0.31480    0.76120    0.01790    1.000
    Er5      Er       0.76389    0.93265    0.67952    1.000
    O41      O        0.80410    0.98530    0.03290    1.000
    O42      O        0.80760    0.94890    0.86650    1.000
    O43      O        0.92290    0.92970    0.72710    1.000
    O44      O        0.61000    0.93800    0.56800    1.000
    O45      O        0.77420    0.11230    0.70470    1.000
    O46      O        0.75870    0.27410    0.74890    1.000
    O47      O        0.61610    0.95930    0.72580    1.000
    O48      O        0.71160    0.81500    0.54320    1.000
    C13      C        0.76950    0.98720    0.93630    1.000
    H17      H        0.71100    0.01890    0.91220    1.000
    C14      C        0.73330    0.18420    0.73490    1.000
    H18      H        0.67550    0.16840    0.74900    1.000
    C15      C        0.57490    0.97990    0.63400    1.000
    H19      H        0.52240    0.02320    0.61600    1.000
    O49      O        0.61500    0.01300    0.56900    1.000
    O50      O        0.80510    0.79880    0.56900    1.000
    H20      H        0.81480    0.73880    0.51790    1.000
    Er6      Er       0.26389    0.43265    0.67952    1.000
    O51      O        0.30410    0.48530    0.03290    1.000
    O52      O        0.30760    0.44890    0.86650    1.000
    O53      O        0.42290    0.42970    0.72710    1.000
    O54      O        0.11000    0.43800    0.56800    1.000
    O55      O        0.27420    0.61230    0.70470    1.000
    O56      O        0.25870    0.77410    0.74890    1.000
    O57      O        0.11610    0.45930    0.72580    1.000
    O58      O        0.21160    0.31500    0.54320    1.000
    C16      C        0.26950    0.48720    0.93630    1.000
    H21      H        0.21100    0.51890    0.91220    1.000
    C17      C        0.23330    0.68420    0.73490    1.000
    H22      H        0.17550    0.66840    0.74900    1.000
    C18      C        0.07490    0.47990    0.63400    1.000
    H23      H        0.02240    0.52320    0.61600    1.000
    O59      O        0.11500    0.51300    0.56900    1.000
    O60      O        0.30510    0.29880    0.56900    1.000
    H24      H        0.31480    0.23880    0.51790    1.000
    Er7      Er       0.23611    0.93265    0.82048    1.000
    O61      O        0.19590    0.98530    0.46710    1.000
    O62      O        0.19240    0.94890    0.63350    1.000
    O63      O        0.07710    0.92970    0.77290    1.000
    O64      O        0.39000    0.93800    0.93200    1.000
    O65      O        0.22580    0.11230    0.79530    1.000
    O66      O        0.24130    0.27410    0.75110    1.000
    O67      O        0.38390    0.95930    0.77420    1.000
    O68      O        0.28840    0.81500    0.95680    1.000
    C19      C        0.23050    0.98720    0.56370    1.000
    H25      H        0.28900    0.01890    0.58780    1.000
    C20      C        0.26670    0.18420    0.76510    1.000
    H26      H        0.32450    0.16840    0.75100    1.000
    C21      C        0.42510    0.97990    0.86600    1.000
    H27      H        0.47760    0.02320    0.88400    1.000
    O69      O        0.38500    0.01300    0.93100    1.000
    O70      O        0.19490    0.79880    0.93100    1.000
    H28      H        0.18520    0.73880    0.98210    1.000
    Er8      Er       0.73611    0.43265    0.82048    1.000
    O71      O        0.69590    0.48530    0.46710    1.000
    O72      O        0.69240    0.44890    0.63350    1.000
    O73      O        0.57710    0.42970    0.77290    1.000
    O74      O        0.89000    0.43800    0.93200    1.000
    O75      O        0.72580    0.61230    0.79530    1.000
    O76      O        0.74130    0.77410    0.75110    1.000
    O77      O        0.88390    0.45930    0.77420    1.000
    O78      O        0.78840    0.31500    0.95680    1.000
    C22      C        0.73050    0.48720    0.56370    1.000
    H29      H        0.78900    0.51890    0.58780    1.000
    C23      C        0.76670    0.68420    0.76510    1.000
    H30      H        0.82450    0.66840    0.75100    1.000
    C24      C        0.92510    0.47990    0.86600    1.000
    H31      H        0.97760    0.52320    0.88400    1.000
    O79      O        0.88500    0.51300    0.93100    1.000
    O80      O        0.69490    0.29880    0.93100    1.000
    H32      H        0.68520    0.23880    0.98210    1.000
    C25      C        0.00000    0.10800    0.25000    1.000
    H33      H        0.00000    0.17990    0.25000    1.000
    C26      C        0.50000    0.60800    0.25000    1.000
    H34      H        0.50000    0.67990    0.25000    1.000
    C27      C        0.00000    0.89200    0.75000    1.000
    H35      H        0.00000    0.82010    0.75000    1.000
    C28      C        0.50000    0.39200    0.75000    1.000
    H36      H        0.50000    0.32010    0.75000    1.000
    C29      C        0.25000    0.25000    0.50000    1.000
    C30      C        0.75000    0.25000    0.00000    1.000
    C31      C        0.75000    0.75000    0.50000    1.000
    C32      C        0.25000    0.75000    0.00000    1.000
