# CIF file generated by openbabel 3.1.0, see https://openbabel.org
data_I
_chemical_name_common 'image0'
_cell_length_a 13.7239
_cell_length_b 15.0724
_cell_length_c 15.86
_cell_angle_alpha 90
_cell_angle_beta 94.504
_cell_angle_gamma 90
_space_group_name_H-M_alt 'P 1'
_space_group_name_Hall 'P 1'
loop_
    _symmetry_equiv_pos_as_xyz
    x,y,z
loop_
    _atom_site_label
    _atom_site_type_symbol
    _atom_site_fract_x
    _atom_site_fract_y
    _atom_site_fract_z
    _atom_site_occupancy
    Co1      Co       0.73753    0.90927    0.49630    1.000
    Fe1      Fe       0.78013    0.65963    0.25053    1.000
    Fe2      Fe       0.74559    0.67736    0.76848    1.000
    O1       O        0.60270    0.74464    0.56962    1.000
    O2       O        0.75465    0.77989    0.54075    1.000
    O3       O        0.77916    0.44975    0.87954    1.000
    O4       O        0.92133    0.52485    0.88659    1.000
    O5       O        0.91840    0.58902    0.06543    1.000
    O6       O        0.76511    0.53969    0.04179    1.000
    O7       O        0.75464    0.86788    0.37081    1.000
    O8       O        0.59920    0.83997    0.32306    1.000
    O9       O        0.91554    0.38927    0.02504    1.000
    H1       H        0.91800    0.37200    0.07900    1.000
    H2       H        0.92500    0.34700    0.99550    1.000
    C1       C        0.83875    0.50395    0.85352    1.000
    C2       C        0.80736    0.55297    0.77226    1.000
    C3       C        0.70930    0.54693    0.73943    1.000
    H3       H        0.66730    0.50410    0.76150    1.000
    C4       C        0.67320    0.60419    0.67381    1.000
    H4       H        0.60650    0.60070    0.65300    1.000
    C5       C        0.73500    0.66617    0.63910    1.000
    C6       C        0.83340    0.66850    0.66926    1.000
    H5       H        0.87660    0.70810    0.64440    1.000
    C7       C        0.86960    0.61290    0.73600    1.000
    H6       H        0.93650    0.61610    0.75640    1.000
    C8       C        0.69370    0.73590    0.57754    1.000
    C9       C        0.82849    0.59226    0.07156    1.000
    C10      C        0.79146    0.66820    0.12207    1.000
    C11      C        0.85610    0.72957    0.16405    1.000
    H7       H        0.92250    0.73120    0.15110    1.000
    C12      C        0.82350    0.78820    0.22462    1.000
    H8       H        0.86790    0.82860    0.25300    1.000
    C13      C        0.72407    0.78689    0.24324    1.000
    C14      C        0.65820    0.72964    0.19847    1.000
    H9       H        0.59100    0.73060    0.20890    1.000
    C15      C        0.69160    0.67036    0.13777    1.000
    H10      H        0.64660    0.63180    0.10750    1.000
    C16      C        0.68900    0.83610    0.31912    1.000
    C17      C        0.85490    0.54510    0.27980    1.000
    H11      H        0.89590    0.51460    0.24390    1.000
    C18      C        0.75580    0.53100    0.28340    1.000
    H12      H        0.71720    0.48980    0.25010    1.000
    C19      C        0.72220    0.58770    0.34420    1.000
    H13      H        0.65690    0.59110    0.36000    1.000
    C20      C        0.80060    0.63860    0.37790    1.000
    H14      H        0.79780    0.68320    0.42010    1.000
    C21      C        0.88540    0.61240    0.33850    1.000
    H15      H        0.94960    0.63530    0.34920    1.000
    C22      C        0.68280    0.68800    0.88580    1.000
    H16      H        0.67750    0.64160    0.92580    1.000
    C23      C        0.60910    0.71460    0.82300    1.000
    H17      H        0.54590    0.68910    0.81360    1.000
    C24      C        0.64670    0.78580    0.77670    1.000
    H18      H        0.61290    0.81650    0.73090    1.000
    C25      C        0.74350    0.80330    0.81090    1.000
    H19      H        0.78590    0.84760    0.79210    1.000
    C26      C        0.76580    0.74280    0.87840    1.000
    H20      H        0.82580    0.73960    0.91250    1.000
    C27      C        0.66140    0.75490    0.82680    1.000
    C28      C        0.72630    0.81040    0.78530    1.000
    C29      C        0.82250    0.79460    0.82180    1.000
    C30      C        0.81720    0.72930    0.88580    1.000
    C31      C        0.71760    0.70480    0.88890    1.000
    H21      H        0.59260    0.75190    0.81500    1.000
    H22      H        0.70840    0.85100    0.74090    1.000
    H23      H        0.88040    0.82270    0.80610    1.000
    H24      H        0.87080    0.70610    0.92050    1.000
    H25      H        0.69290    0.66240    0.92610    1.000
    Co2      Co       0.76247    0.40927    0.00370    1.000
    Fe3      Fe       0.71987    0.15963    0.24947    1.000
    Fe4      Fe       0.75441    0.17736    0.73152    1.000
    O10      O        0.89730    0.24464    0.93038    1.000
    O11      O        0.74535    0.27989    0.95925    1.000
    O12      O        0.72084    0.94975    0.62046    1.000
    O13      O        0.57867    0.02485    0.61341    1.000
    O14      O        0.58160    0.08902    0.43457    1.000
    O15      O        0.73489    0.03969    0.45821    1.000
    O16      O        0.74536    0.36788    0.12919    1.000
    O17      O        0.90080    0.33997    0.17694    1.000
    O18      O        0.58446    0.88927    0.47496    1.000
    H26      H        0.58200    0.87200    0.42100    1.000
    H27      H        0.57500    0.84700    0.50450    1.000
    C32      C        0.66125    0.00395    0.64648    1.000
    C33      C        0.69264    0.05297    0.72774    1.000
    C34      C        0.79070    0.04693    0.76057    1.000
    H28      H        0.83270    0.00410    0.73850    1.000
    C35      C        0.82680    0.10419    0.82619    1.000
    H29      H        0.89350    0.10070    0.84700    1.000
    C36      C        0.76500    0.16617    0.86090    1.000
    C37      C        0.66660    0.16850    0.83074    1.000
    H30      H        0.62340    0.20810    0.85560    1.000
    C38      C        0.63040    0.11290    0.76400    1.000
    H31      H        0.56350    0.11610    0.74360    1.000
    C39      C        0.80630    0.23590    0.92246    1.000
    C40      C        0.67151    0.09226    0.42844    1.000
    C41      C        0.70854    0.16820    0.37793    1.000
    C42      C        0.64390    0.22957    0.33595    1.000
    H32      H        0.57750    0.23120    0.34890    1.000
    C43      C        0.67650    0.28820    0.27538    1.000
    H33      H        0.63210    0.32860    0.24700    1.000
    C44      C        0.77593    0.28689    0.25676    1.000
    C45      C        0.84180    0.22964    0.30153    1.000
    H34      H        0.90900    0.23060    0.29110    1.000
    C46      C        0.80840    0.17036    0.36223    1.000
    H35      H        0.85340    0.13180    0.39250    1.000
    C47      C        0.81100    0.33610    0.18088    1.000
    C48      C        0.64510    0.04510    0.22020    1.000
    H36      H        0.60410    0.01460    0.25610    1.000
    C49      C        0.74420    0.03100    0.21660    1.000
    H37      H        0.78280    0.98980    0.24990    1.000
    C50      C        0.77780    0.08770    0.15580    1.000
    H38      H        0.84310    0.09110    0.14000    1.000
    C51      C        0.69940    0.13860    0.12210    1.000
    H39      H        0.70220    0.18320    0.07990    1.000
    C52      C        0.61460    0.11240    0.16150    1.000
    H40      H        0.55040    0.13530    0.15080    1.000
    C53      C        0.81720    0.18800    0.61420    1.000
    H41      H        0.82250    0.14160    0.57420    1.000
    C54      C        0.89090    0.21460    0.67700    1.000
    H42      H        0.95410    0.18910    0.68640    1.000
    C55      C        0.85330    0.28580    0.72330    1.000
    H43      H        0.88710    0.31650    0.76910    1.000
    C56      C        0.75650    0.30330    0.68910    1.000
    H44      H        0.71410    0.34760    0.70790    1.000
    C57      C        0.73420    0.24280    0.62160    1.000
    H45      H        0.67420    0.23960    0.58750    1.000
    C58      C        0.83860    0.25490    0.67320    1.000
    C59      C        0.77370    0.31040    0.71470    1.000
    C60      C        0.67750    0.29460    0.67820    1.000
    C61      C        0.68280    0.22930    0.61420    1.000
    C62      C        0.78240    0.20480    0.61110    1.000
    H46      H        0.90740    0.25190    0.68500    1.000
    H47      H        0.79160    0.35100    0.75910    1.000
    H48      H        0.61960    0.32270    0.69390    1.000
    H49      H        0.62920    0.20610    0.57950    1.000
    H50      H        0.80710    0.16240    0.57390    1.000
    Co3      Co       0.26247    0.09073    0.50370    1.000
    Fe5      Fe       0.21987    0.34037    0.74947    1.000
    Fe6      Fe       0.25441    0.32264    0.23152    1.000
    O19      O        0.39730    0.25536    0.43038    1.000
    O20      O        0.24535    0.22011    0.45925    1.000
    O21      O        0.22084    0.55025    0.12046    1.000
    O22      O        0.07867    0.47515    0.11341    1.000
    O23      O        0.08160    0.41098    0.93457    1.000
    O24      O        0.23489    0.46031    0.95821    1.000
    O25      O        0.24536    0.13212    0.62919    1.000
    O26      O        0.40080    0.16003    0.67694    1.000
    O27      O        0.08446    0.61073    0.97496    1.000
    H51      H        0.08200    0.62800    0.92100    1.000
    H52      H        0.07500    0.65300    0.00450    1.000
    C63      C        0.16125    0.49605    0.14648    1.000
    C64      C        0.19264    0.44703    0.22774    1.000
    C65      C        0.29070    0.45307    0.26057    1.000
    H53      H        0.33270    0.49590    0.23850    1.000
    C66      C        0.32680    0.39581    0.32619    1.000
    H54      H        0.39350    0.39930    0.34700    1.000
    C67      C        0.26500    0.33383    0.36090    1.000
    C68      C        0.16660    0.33150    0.33074    1.000
    H55      H        0.12340    0.29190    0.35560    1.000
    C69      C        0.13040    0.38710    0.26400    1.000
    H56      H        0.06350    0.38390    0.24360    1.000
    C70      C        0.30630    0.26410    0.42246    1.000
    C71      C        0.17151    0.40774    0.92844    1.000
    C72      C        0.20854    0.33180    0.87793    1.000
    C73      C        0.14390    0.27043    0.83595    1.000
    H57      H        0.07750    0.26880    0.84890    1.000
    C74      C        0.17650    0.21180    0.77538    1.000
    H58      H        0.13210    0.17140    0.74700    1.000
    C75      C        0.27593    0.21311    0.75676    1.000
    C76      C        0.34180    0.27036    0.80153    1.000
    H59      H        0.40900    0.26940    0.79110    1.000
    C77      C        0.30840    0.32964    0.86223    1.000
    H60      H        0.35340    0.36820    0.89250    1.000
    C78      C        0.31100    0.16390    0.68088    1.000
    C79      C        0.14510    0.45490    0.72020    1.000
    H61      H        0.10410    0.48540    0.75610    1.000
    C80      C        0.24420    0.46900    0.71660    1.000
    H62      H        0.28280    0.51020    0.74990    1.000
    C81      C        0.27780    0.41230    0.65580    1.000
    H63      H        0.34310    0.40890    0.64000    1.000
    C82      C        0.19940    0.36140    0.62210    1.000
    H64      H        0.20220    0.31680    0.57990    1.000
    C83      C        0.11460    0.38760    0.66150    1.000
    H65      H        0.05040    0.36470    0.65080    1.000
    C84      C        0.31720    0.31200    0.11420    1.000
    H66      H        0.32250    0.35840    0.07420    1.000
    C85      C        0.39090    0.28540    0.17700    1.000
    H67      H        0.45410    0.31090    0.18640    1.000
    C86      C        0.35330    0.21420    0.22330    1.000
    H68      H        0.38710    0.18350    0.26910    1.000
    C87      C        0.25650    0.19670    0.18910    1.000
    H69      H        0.21410    0.15240    0.20790    1.000
    C88      C        0.23420    0.25720    0.12160    1.000
    H70      H        0.17420    0.26040    0.08750    1.000
    C89      C        0.33860    0.24510    0.17320    1.000
    C90      C        0.27370    0.18960    0.21470    1.000
    C91      C        0.17750    0.20540    0.17820    1.000
    C92      C        0.18280    0.27070    0.11420    1.000
    C93      C        0.28240    0.29520    0.11110    1.000
    H71      H        0.40740    0.24810    0.18500    1.000
    H72      H        0.29160    0.14900    0.25910    1.000
    H73      H        0.11960    0.17730    0.19390    1.000
    H74      H        0.12920    0.29390    0.07950    1.000
    H75      H        0.30710    0.33760    0.07390    1.000
    Co4      Co       0.23753    0.59073    0.99630    1.000
    Fe7      Fe       0.28013    0.84037    0.75053    1.000
    Fe8      Fe       0.24559    0.82264    0.26848    1.000
    O28      O        0.10270    0.75536    0.06962    1.000
    O29      O        0.25465    0.72011    0.04075    1.000
    O30      O        0.27916    0.05025    0.37954    1.000
    O31      O        0.42133    0.97515    0.38659    1.000
    O32      O        0.41840    0.91098    0.56543    1.000
    O33      O        0.26511    0.96031    0.54179    1.000
    O34      O        0.25464    0.63212    0.87081    1.000
    O35      O        0.09920    0.66003    0.82306    1.000
    O36      O        0.41554    0.11073    0.52504    1.000
    H76      H        0.41800    0.12800    0.57900    1.000
    H77      H        0.42500    0.15300    0.49550    1.000
    C94      C        0.33875    0.99605    0.35352    1.000
    C95      C        0.30736    0.94703    0.27226    1.000
    C96      C        0.20930    0.95307    0.23943    1.000
    H78      H        0.16730    0.99590    0.26150    1.000
    C97      C        0.17320    0.89581    0.17381    1.000
    H79      H        0.10650    0.89930    0.15300    1.000
    C98      C        0.23500    0.83383    0.13910    1.000
    C99      C        0.33340    0.83150    0.16926    1.000
    H80      H        0.37660    0.79190    0.14440    1.000
    C100     C        0.36960    0.88710    0.23600    1.000
    H81      H        0.43650    0.88390    0.25640    1.000
    C101     C        0.19370    0.76410    0.07754    1.000
    C102     C        0.32849    0.90774    0.57156    1.000
    C103     C        0.29146    0.83180    0.62207    1.000
    C104     C        0.35610    0.77043    0.66405    1.000
    H82      H        0.42250    0.76880    0.65110    1.000
    C105     C        0.32350    0.71180    0.72462    1.000
    H83      H        0.36790    0.67140    0.75300    1.000
    C106     C        0.22407    0.71311    0.74324    1.000
    C107     C        0.15820    0.77036    0.69847    1.000
    H84      H        0.09100    0.76940    0.70890    1.000
    C108     C        0.19160    0.82964    0.63777    1.000
    H85      H        0.14660    0.86820    0.60750    1.000
    C109     C        0.18900    0.66390    0.81912    1.000
    C110     C        0.35490    0.95490    0.77980    1.000
    H86      H        0.39590    0.98540    0.74390    1.000
    C111     C        0.25580    0.96900    0.78340    1.000
    H87      H        0.21720    0.01020    0.75010    1.000
    C112     C        0.22220    0.91230    0.84420    1.000
    H88      H        0.15690    0.90890    0.86000    1.000
    C113     C        0.30060    0.86140    0.87790    1.000
    H89      H        0.29780    0.81680    0.92010    1.000
    C114     C        0.38540    0.88760    0.83850    1.000
    H90      H        0.44960    0.86470    0.84920    1.000
    C115     C        0.18280    0.81200    0.38580    1.000
    H91      H        0.17750    0.85840    0.42580    1.000
    C116     C        0.10910    0.78540    0.32300    1.000
    H92      H        0.04590    0.81090    0.31360    1.000
    C117     C        0.14670    0.71420    0.27670    1.000
    H93      H        0.11290    0.68350    0.23090    1.000
    C118     C        0.24350    0.69670    0.31090    1.000
    H94      H        0.28590    0.65240    0.29210    1.000
    C119     C        0.26580    0.75720    0.37840    1.000
    H95      H        0.32580    0.76040    0.41250    1.000
    C120     C        0.16140    0.74510    0.32680    1.000
    C121     C        0.22630    0.68960    0.28530    1.000
    C122     C        0.32250    0.70540    0.32180    1.000
    C123     C        0.31720    0.77070    0.38580    1.000
    C124     C        0.21760    0.79520    0.38890    1.000
    H96      H        0.09260    0.74810    0.31500    1.000
    H97      H        0.20840    0.64900    0.24090    1.000
    H98      H        0.38040    0.67730    0.30610    1.000
    H99      H        0.37080    0.79390    0.42050    1.000
    H100     H        0.19290    0.83760    0.42610    1.000
    Co5      Co       0.00000    0.50000    0.00000    1.000
    Co6      Co       0.50000    0.00000    0.50000    1.000
