# CIF file generated by openbabel 3.1.0, see https://openbabel.org
data_I
_chemical_name_common 'image0'
_cell_length_a 9.3254
_cell_length_b 9.428
_cell_length_c 14.306
_cell_angle_alpha 96.449
_cell_angle_beta 103.879
_cell_angle_gamma 104.35
_space_group_name_H-M_alt 'P 1'
_space_group_name_Hall 'P 1'
loop_
    _symmetry_equiv_pos_as_xyz
    x,y,z
loop_
    _atom_site_label
    _atom_site_type_symbol
    _atom_site_fract_x
    _atom_site_fract_y
    _atom_site_fract_z
    _atom_site_occupancy
    Mg1      Mg       0.20695    0.48237    0.89214    1.000
    Mg2      Mg       0.16084    0.29821    0.53675    1.000
    P1       P        0.33949    0.59343    0.71123    1.000
    O1       O        0.25911    0.59703    0.79062    1.000
    O2       O        0.31249    0.44102    0.65459    1.000
    O3       O        0.51454    0.66767    0.75113    1.000
    O4       O        0.27001    0.69471    0.64198    1.000
    H1       H        0.33180    0.73040    0.61270    1.000
    O5       O        0.05086    0.60278    0.91350    1.000
    O6       O        0.88683    0.62010    0.00228    1.000
    O7       O        0.39429    0.62770    0.00460    1.000
    O8       O        0.63122    0.63904    0.09309    1.000
    O9       O        0.99605    0.12868    0.42257    1.000
    O10      O        0.87423    0.88553    0.39272    1.000
    O11      O        0.12749    0.44567    0.44259    1.000
    O12      O        0.01410    0.62725    0.42108    1.000
    C1       C        0.98180    0.56550    0.97538    1.000
    C2       C        0.50640    0.57750    0.02772    1.000
    C3       C        0.96220    0.00460    0.44620    1.000
    C4       C        0.04110    0.52240    0.46020    1.000
    Mg3      Mg       0.79305    0.51763    0.10786    1.000
    Mg4      Mg       0.83916    0.70179    0.46325    1.000
    P2       P        0.66051    0.40657    0.28877    1.000
    O13      O        0.74089    0.40297    0.20938    1.000
    O14      O        0.68751    0.55898    0.34541    1.000
    O15      O        0.48546    0.33233    0.24887    1.000
    O16      O        0.72999    0.30529    0.35802    1.000
    H2       H        0.66820    0.26960    0.38730    1.000
    O17      O        0.94914    0.39722    0.08650    1.000
    O18      O        0.11317    0.37990    0.99772    1.000
    O19      O        0.60571    0.37230    0.99540    1.000
    O20      O        0.36878    0.36096    0.90691    1.000
    O21      O        0.00395    0.87132    0.57743    1.000
    O22      O        0.12577    0.11447    0.60728    1.000
    O23      O        0.87251    0.55433    0.55741    1.000
    O24      O        0.98590    0.37275    0.57892    1.000
    C5       C        0.01820    0.43450    0.02462    1.000
    C6       C        0.49360    0.42250    0.97228    1.000
    C7       C        0.03780    0.99540    0.55380    1.000
    C8       C        0.95890    0.47760    0.53980    1.000
