# CIF file generated by openbabel 3.1.0, see https://openbabel.org
data_I
_chemical_name_common 'VACFUB_clean_h'
_cell_length_a 6.258
_cell_length_b 15.526
_cell_length_c 15.526
_cell_angle_alpha 120
_cell_angle_beta 90
_cell_angle_gamma 90
_space_group_name_H-M_alt 'P 1'
_space_group_name_Hall 'P 1'
loop_
    _symmetry_equiv_pos_as_xyz
    x,y,z
loop_
    _atom_site_label
    _atom_site_type_symbol
    _atom_site_fract_x
    _atom_site_fract_y
    _atom_site_fract_z
    _atom_site_occupancy
    Zn1      Zn       0.95155    0.16673    0.33334    1.000
    Zn2      Zn       0.61822    0.16661    0.83327    1.000
    Zn3      Zn       0.28488    0.66666    0.83339    1.000
    C1       C        0.85010    0.98120    0.18890    1.000
    C2       C        0.84870    0.35170    0.47770    1.000
    C3       C        0.70790    0.90250    0.10720    1.000
    C4       C        0.39050    0.85270    0.01090    1.000
    C5       C        0.70930    0.43090    0.55840    1.000
    C6       C        0.78800    0.52780    0.61970    1.000
    C7       C        0.50760    0.92790    0.09140    1.000
    C8       C        0.50780    0.40660    0.57590    1.000
    C9       C        0.78740    0.80570    0.04660    1.000
    C10      C        0.38960    0.48020    0.65420    1.000
    C11      C        0.65950    0.73670    0.96870    1.000
    C12      C        0.66080    0.59460    0.69670    1.000
    C13      C        0.51677    0.20770    0.01880    1.000
    C14      C        0.51537    0.12600    0.64830    1.000
    C15      C        0.37457    0.20470    0.09750    1.000
    C16      C        0.05717    0.15820    0.14730    1.000
    C17      C        0.37597    0.12750    0.56910    1.000
    C18      C        0.45467    0.09190    0.47220    1.000
    C19      C        0.17427    0.16350    0.07210    1.000
    C20      C        0.17447    0.16930    0.59340    1.000
    C21      C        0.45407    0.24090    0.19430    1.000
    C22      C        0.05627    0.17400    0.51980    1.000
    C23      C        0.32617    0.23200    0.26330    1.000
    C24      C        0.32747    0.10210    0.40540    1.000
    C25      C        0.18343    0.81110    0.79230    1.000
    C26      C        0.18203    0.52230    0.87400    1.000
    C27      C        0.04123    0.89280    0.79530    1.000
    C28      C        0.72383    0.98910    0.84180    1.000
    C29      C        0.04263    0.44160    0.87250    1.000
    C30      C        0.12133    0.38030    0.90810    1.000
    C31      C        0.84093    0.90860    0.83650    1.000
    C32      C        0.84113    0.42410    0.83070    1.000
    C33      C        0.12073    0.95340    0.75910    1.000
    C34      C        0.72293    0.34580    0.82600    1.000
    C35      C        0.99283    0.03130    0.76800    1.000
    C36      C        0.99413    0.30330    0.89790    1.000
    N1       N        0.46460    0.76180    0.95280    1.000
    N2       N        0.46500    0.57220    0.71410    1.000
    N3       N        0.13127    0.19100    0.23820    1.000
    N4       N        0.13167    0.14190    0.42780    1.000
    N5       N        0.79793    0.04720    0.80900    1.000
    N6       N        0.79833    0.28590    0.85810    1.000
    O1       O        0.75190    0.27120    0.41920    1.000
    O2       O        0.75150    0.06150    0.24780    1.000
    O3       O        0.04000    0.36810    0.47590    1.000
    O4       O        0.04020    0.96560    0.19060    1.000
    O5       O        0.41857    0.14800    0.72880    1.000
    O6       O        0.41817    0.18630    0.93850    1.000
    O7       O        0.70667    0.10780    0.63190    1.000
    O8       O        0.70687    0.22500    0.03440    1.000
    O9       O        0.08523    0.58080    0.85200    1.000
    O10      O        0.08483    0.75220    0.81370    1.000
    O11      O        0.37333    0.52410    0.89220    1.000
    O12      O        0.37353    0.80940    0.77500    1.000
    H1       H        0.22350    0.86918    0.99352    1.000
    H2       H        0.95268    0.54910    0.60496    1.000
    H3       H        0.43450    0.00481    0.13916    1.000
    H4       H        0.44278    0.32821    0.52692    1.000
    H5       H        0.95258    0.78504    0.06153    1.000
    H6       H        0.22109    0.46338    0.66958    1.000
    H7       H        0.72065    0.65796    0.91775    1.000
    H8       H        0.72129    0.67311    0.74914    1.000
    H9       H        0.89017    0.12433    0.13082    1.000
    H10      H        0.61935    0.05586    0.45090    1.000
    H11      H        0.11042    0.13572    0.99379    1.000
    H12      H        0.10945    0.19870    0.67179    1.000
    H13      H        0.61925    0.27649    0.21496    1.000
    H14      H        0.88776    0.20620    0.53662    1.000
    H15      H        0.38732    0.25979    0.34204    1.000
    H16      H        0.38796    0.07603    0.32689    1.000
    H17      H        0.55683    0.00648    0.87567    1.000
    H18      H        0.28601    0.39504    0.94414    1.000
    H19      H        0.76783    0.86084    0.86565    1.000
    H20      H        0.77611    0.47308    0.80130    1.000
    H21      H        0.28591    0.93847    0.72351    1.000
    H22      H        0.55442    0.33042    0.79380    1.000
    H23      H        0.05398    0.08225    0.74021    1.000
    H24      H        0.05462    0.25086    0.92397    1.000
