# CIF file generated by openbabel 3.1.0, see https://openbabel.org
data_I
_chemical_name_common 'image0'
_cell_length_a 8.9042
_cell_length_b 12.7757
_cell_length_c 9.2004
_cell_angle_alpha 90
_cell_angle_beta 90
_cell_angle_gamma 90
_space_group_name_H-M_alt 'P 1'
_space_group_name_Hall 'P 1'
loop_
    _symmetry_equiv_pos_as_xyz
    x,y,z
loop_
    _atom_site_label
    _atom_site_type_symbol
    _atom_site_fract_x
    _atom_site_fract_y
    _atom_site_fract_z
    _atom_site_occupancy
    O1       O        0.29857    0.95799    0.62533    1.000
    O2       O        0.13555    0.95820    0.80773    1.000
    O3       O        0.48286    0.16310    0.58086    1.000
    C1       C        0.25585    0.98220    0.74934    1.000
    H1       H        0.32140    0.02280    0.80430    1.000
    O4       O        0.20143    0.04201    0.12533    1.000
    O5       O        0.36445    0.04180    0.30773    1.000
    O6       O        0.01714    0.83690    0.08086    1.000
    C2       C        0.24415    0.01780    0.24934    1.000
    H2       H        0.17860    0.97720    0.30430    1.000
    O7       O        0.70143    0.45799    0.37467    1.000
    O8       O        0.86445    0.45820    0.19227    1.000
    O9       O        0.51714    0.66310    0.41914    1.000
    C3       C        0.74415    0.48220    0.25066    1.000
    H3       H        0.67860    0.52280    0.19570    1.000
    O10      O        0.79857    0.54201    0.87467    1.000
    O11      O        0.63555    0.54180    0.69227    1.000
    O12      O        0.98286    0.33690    0.91914    1.000
    C4       C        0.75585    0.51780    0.75066    1.000
    H4       H        0.82140    0.47720    0.69570    1.000
    O13      O        0.70143    0.04201    0.37467    1.000
    O14      O        0.86445    0.04180    0.19227    1.000
    O15      O        0.51714    0.83690    0.41914    1.000
    C5       C        0.74415    0.01780    0.25066    1.000
    H5       H        0.67860    0.97720    0.19570    1.000
    O16      O        0.79857    0.95799    0.87467    1.000
    O17      O        0.63555    0.95820    0.69227    1.000
    O18      O        0.98286    0.16310    0.91914    1.000
    C6       C        0.75585    0.98220    0.75066    1.000
    H6       H        0.82140    0.02280    0.69570    1.000
    O19      O        0.29857    0.54201    0.62533    1.000
    O20      O        0.13555    0.54180    0.80773    1.000
    O21      O        0.48286    0.33690    0.58086    1.000
    C7       C        0.25585    0.51780    0.74934    1.000
    H7       H        0.32140    0.47720    0.80430    1.000
    O22      O        0.20143    0.45799    0.12533    1.000
    O23      O        0.36445    0.45820    0.30773    1.000
    O24      O        0.01714    0.66310    0.08086    1.000
    C8       C        0.24415    0.48220    0.24934    1.000
    H8       H        0.17860    0.52280    0.30430    1.000
    Mn1      Mn       0.50000    0.00000    0.50000    1.000
    Mn2      Mn       0.00000    0.00000    0.00000    1.000
    Mn3      Mn       0.50000    0.50000    0.50000    1.000
    Mn4      Mn       0.00000    0.50000    0.00000    1.000
    C9       C        0.48910    0.25000    0.52470    1.000
    H9       H        0.50030    0.25000    0.42420    1.000
    H10      H        0.40980    0.25000    0.45250    1.000
    H11      H        0.58250    0.25000    0.47050    1.000
    C10      C        0.01090    0.75000    0.02470    1.000
    H12      H        0.99970    0.75000    0.92420    1.000
    H13      H        0.09020    0.75000    0.95250    1.000
    H14      H        0.91750    0.75000    0.97050    1.000
    C11      C        0.51090    0.75000    0.47530    1.000
    H15      H        0.49970    0.75000    0.57580    1.000
    H16      H        0.59020    0.75000    0.54750    1.000
    H17      H        0.41750    0.75000    0.52950    1.000
    C12      C        0.98910    0.25000    0.97530    1.000
    H18      H        0.00030    0.25000    0.07580    1.000
    H19      H        0.90980    0.25000    0.04750    1.000
    H20      H        0.08250    0.25000    0.02950    1.000
