# CIF file generated by openbabel 3.1.0, see https://openbabel.org
data_I
_chemical_name_common 'PABXAT_clean'
_cell_length_a 8.6559
_cell_length_b 9.1999
_cell_length_c 15.857
_cell_angle_alpha 90
_cell_angle_beta 90
_cell_angle_gamma 114.438
_space_group_name_H-M_alt 'P 1'
_space_group_name_Hall 'P 1'
loop_
    _symmetry_equiv_pos_as_xyz
    x,y,z
loop_
    _atom_site_label
    _atom_site_type_symbol
    _atom_site_fract_x
    _atom_site_fract_y
    _atom_site_fract_z
    _atom_site_occupancy
    Pr1      Pr       0.73237    0.74917    0.73101    1.000
    Pr2      Pr       0.76763    0.25083    0.23101    1.000
    Pr3      Pr       0.26763    0.25083    0.26899    1.000
    Pr4      Pr       0.23237    0.74917    0.76899    1.000
    H1       H        0.36300    0.52100    0.02200    1.000
    H2       H        0.13600    0.33900    0.67300    1.000
    H3       H        0.31800    0.16100    0.72000    1.000
    H4       H        0.13700    0.47900    0.52200    1.000
    H5       H        0.36400    0.66100    0.17300    1.000
    H6       H        0.18200    0.83900    0.22000    1.000
    H7       H        0.63700    0.47900    0.97800    1.000
    H8       H        0.86400    0.66100    0.32700    1.000
    H9       H        0.68200    0.83900    0.28000    1.000
    H10      H        0.86300    0.52100    0.47800    1.000
    H11      H        0.63600    0.33900    0.82700    1.000
    H12      H        0.81800    0.16100    0.78000    1.000
    C1       C        0.22670    0.18150    0.70230    1.000
    C2       C        0.46000    0.61230    0.90570    1.000
    C3       C        0.06730    0.03490    0.70390    1.000
    C4       C        0.39660    0.47010    0.69390    1.000
    C5       C        0.23520    0.32450    0.68420    1.000
    C6       C        0.44410    0.52660    0.98740    1.000
    C7       C        0.27330    0.81850    0.20230    1.000
    C8       C        0.04000    0.38770    0.40570    1.000
    C9       C        0.43270    0.96510    0.20390    1.000
    C10      C        0.10340    0.52990    0.19390    1.000
    C11      C        0.26480    0.67550    0.18420    1.000
    C12      C        0.05590    0.47340    0.48740    1.000
    C13      C        0.77330    0.81850    0.29770    1.000
    C14      C        0.54000    0.38770    0.09430    1.000
    C15      C        0.93270    0.96510    0.29610    1.000
    C16      C        0.60340    0.52990    0.30610    1.000
    C17      C        0.76480    0.67550    0.31580    1.000
    C18      C        0.55590    0.47340    0.01260    1.000
    C19      C        0.72670    0.18150    0.79770    1.000
    C20      C        0.96000    0.61230    0.59430    1.000
    C21      C        0.56730    0.03490    0.79610    1.000
    C22      C        0.89660    0.47010    0.80610    1.000
    C23      C        0.73520    0.32450    0.81580    1.000
    C24      C        0.94410    0.52660    0.51260    1.000
    O1       O        0.35200    0.66770    0.89150    1.000
    O2       O        0.57850    0.62230    0.85780    1.000
    O3       O        0.93100    0.03390    0.67650    1.000
    O4       O        0.53740    0.46060    0.68960    1.000
    O5       O        0.07050    0.91010    0.73670    1.000
    O6       O        0.38850    0.60210    0.70803    1.000
    O7       O        0.14800    0.33230    0.39150    1.000
    O8       O        0.92150    0.37770    0.35780    1.000
    O9       O        0.56900    0.96610    0.17650    1.000
    O10      O        0.96260    0.53940    0.18960    1.000
    O11      O        0.42950    0.08990    0.23670    1.000
    O12      O        0.11150    0.39790    0.20803    1.000
    O13      O        0.64800    0.33230    0.10850    1.000
    O14      O        0.42150    0.37770    0.14220    1.000
    O15      O        0.06900    0.96610    0.32350    1.000
    O16      O        0.46260    0.53940    0.31040    1.000
    O17      O        0.92950    0.08990    0.26330    1.000
    O18      O        0.61150    0.39790    0.29197    1.000
    O19      O        0.85200    0.66770    0.60850    1.000
    O20      O        0.07850    0.62230    0.64220    1.000
    O21      O        0.43100    0.03390    0.82350    1.000
    O22      O        0.03740    0.46060    0.81040    1.000
    O23      O        0.57050    0.91010    0.76330    1.000
    O24      O        0.88850    0.60210    0.79197    1.000
