# CIF file generated by openbabel 3.1.0, see https://openbabel.org
data_I
_chemical_name_common 'image0'
_cell_length_a 8.8383
_cell_length_b 18.4543
_cell_length_c 18.0608
_cell_angle_alpha 90
_cell_angle_beta 92.572
_cell_angle_gamma 90
_space_group_name_H-M_alt 'P 1'
_space_group_name_Hall 'P 1'
loop_
    _symmetry_equiv_pos_as_xyz
    x,y,z
loop_
    _atom_site_label
    _atom_site_type_symbol
    _atom_site_fract_x
    _atom_site_fract_y
    _atom_site_fract_z
    _atom_site_occupancy
    Dy1      Dy       0.26379    0.31496    0.15925    1.000
    Dy2      Dy       0.29013    0.20404    0.70841    1.000
    O1       O        0.14160    0.23620    0.07520    1.000
    O2       O        0.90920    0.23600    0.11960    1.000
    O3       O        0.02260    0.19280    0.94040    1.000
    O4       O        0.90800    0.13920    0.75710    1.000
    O5       O        0.12770    0.18610    0.80190    1.000
    O6       O        0.95610    0.63120    0.78250    1.000
    O7       O        0.17690    0.57780    0.77320    1.000
    O8       O        0.05000    0.45020    0.73140    1.000
    O9       O        0.94090    0.27540    0.66680    1.000
    O10      O        0.16560    0.31650    0.71090    1.000
    O11      O        0.14700    0.15580    0.61550    1.000
    O12      O        0.92110    0.17150    0.55730    1.000
    O13      O        0.05270    0.19620    0.42820    1.000
    O14      O        0.94670    0.23650    0.29180    1.000
    O15      O        0.18080    0.23640    0.24980    1.000
    O16      O        0.28100    0.44390    0.13450    1.000
    O17      O        0.11430    0.38610    0.06810    1.000
    C1       C        0.00330    0.22350    0.07080    1.000
    C2       C        0.93610    0.19170    0.00020    1.000
    C3       C        0.80110    0.15860    0.98370    1.000
    H1       H        0.72390    0.14990    0.01590    1.000
    C4       C        0.80200    0.14040    0.90880    1.000
    H2       H        0.72460    0.11770    0.88100    1.000
    C5       C        0.93640    0.16210    0.88450    1.000
    C6       C        0.99580    0.16320    0.80840    1.000
    C7       C        0.03390    0.57640    0.76680    1.000
    C8       C        0.95700    0.51050    0.74020    1.000
    C9       C        0.81150    0.49230    0.72060    1.000
    H3       H        0.72720    0.52240    0.72210    1.000
    C10      C        0.81290    0.41850    0.69730    1.000
    H4       H        0.73000    0.39140    0.67990    1.000
    C11      C        0.95770    0.39550    0.70550    1.000
    C12      C        0.02600    0.32390    0.69350    1.000
    C13      C        0.06190    0.16560    0.55820    1.000
    C14      C        0.13800    0.16940    0.48710    1.000
    C15      C        0.27940    0.15150    0.46740    1.000
    H5       H        0.35730    0.13230    0.49770    1.000
    C16      C        0.28370    0.16860    0.39010    1.000
    H6       H        0.36530    0.16170    0.36000    1.000
    C17      C        0.14760    0.19640    0.36910    1.000
    C18      C        0.08690    0.22500    0.29820    1.000
    O18      O        0.08200    0.50110    0.07700    1.000
    N1       N        0.14900    0.44580    0.09210    1.000
    O19      O        0.19400    0.49730    0.03330    1.000
    N2       N        0.21300    0.44110    0.07410    1.000
    Dy3      Dy       0.23621    0.81496    0.34075    1.000
    Dy4      Dy       0.20987    0.70404    0.79159    1.000
    O20      O        0.35840    0.73620    0.42480    1.000
    O21      O        0.59080    0.73600    0.38040    1.000
    O22      O        0.47740    0.69280    0.55960    1.000
    O23      O        0.59200    0.63920    0.74290    1.000
    O24      O        0.37230    0.68610    0.69810    1.000
    O25      O        0.54390    0.13120    0.71750    1.000
    O26      O        0.32310    0.07780    0.72680    1.000
    O27      O        0.45000    0.95020    0.76860    1.000
    O28      O        0.55910    0.77540    0.83320    1.000
    O29      O        0.33440    0.81650    0.78910    1.000
    O30      O        0.35300    0.65580    0.88450    1.000
    O31      O        0.57890    0.67150    0.94270    1.000
    O32      O        0.44730    0.69620    0.07180    1.000
    O33      O        0.55330    0.73650    0.20820    1.000
    O34      O        0.31920    0.73640    0.25020    1.000
    O35      O        0.21900    0.94390    0.36550    1.000
    O36      O        0.38570    0.88610    0.43190    1.000
    C19      C        0.49670    0.72350    0.42920    1.000
    C20      C        0.56390    0.69170    0.49980    1.000
    C21      C        0.69890    0.65860    0.51630    1.000
    H7       H        0.77610    0.64990    0.48410    1.000
    C22      C        0.69800    0.64040    0.59120    1.000
    H8       H        0.77540    0.61770    0.61900    1.000
    C23      C        0.56360    0.66210    0.61550    1.000
    C24      C        0.50420    0.66320    0.69160    1.000
    C25      C        0.46610    0.07640    0.73320    1.000
    C26      C        0.54300    0.01050    0.75980    1.000
    C27      C        0.68850    0.99230    0.77940    1.000
    H9       H        0.77280    0.02240    0.77790    1.000
    C28      C        0.68710    0.91850    0.80270    1.000
    H10      H        0.77000    0.89140    0.82010    1.000
    C29      C        0.54230    0.89550    0.79450    1.000
    C30      C        0.47400    0.82390    0.80650    1.000
    C31      C        0.43810    0.66560    0.94180    1.000
    C32      C        0.36200    0.66940    0.01290    1.000
    C33      C        0.22060    0.65150    0.03260    1.000
    H11      H        0.14270    0.63230    0.00230    1.000
    C34      C        0.21630    0.66860    0.10990    1.000
    H12      H        0.13470    0.66170    0.14000    1.000
    C35      C        0.35240    0.69640    0.13090    1.000
    C36      C        0.41310    0.72500    0.20180    1.000
    O37      O        0.41800    0.00110    0.42300    1.000
    N3       N        0.35100    0.94580    0.40790    1.000
    O38      O        0.30600    0.99730    0.46670    1.000
    N4       N        0.28700    0.94110    0.42590    1.000
    Dy5      Dy       0.73621    0.68504    0.84075    1.000
    Dy6      Dy       0.70987    0.79596    0.29159    1.000
    O39      O        0.85840    0.76380    0.92480    1.000
    O40      O        0.09080    0.76400    0.88040    1.000
    O41      O        0.97740    0.80720    0.05960    1.000
    O42      O        0.09200    0.86080    0.24290    1.000
    O43      O        0.87230    0.81390    0.19810    1.000
    O44      O        0.04390    0.36880    0.21750    1.000
    O45      O        0.82310    0.42220    0.22680    1.000
    O46      O        0.95000    0.54980    0.26860    1.000
    O47      O        0.05910    0.72460    0.33320    1.000
    O48      O        0.83440    0.68350    0.28910    1.000
    O49      O        0.85300    0.84420    0.38450    1.000
    O50      O        0.07890    0.82850    0.44270    1.000
    O51      O        0.94730    0.80380    0.57180    1.000
    O52      O        0.05330    0.76350    0.70820    1.000
    O53      O        0.81920    0.76360    0.75020    1.000
    O54      O        0.71900    0.55610    0.86550    1.000
    O55      O        0.88570    0.61390    0.93190    1.000
    C37      C        0.99670    0.77650    0.92920    1.000
    C38      C        0.06390    0.80830    0.99980    1.000
    C39      C        0.19890    0.84140    0.01630    1.000
    H13      H        0.27610    0.85010    0.98410    1.000
    C40      C        0.19800    0.85960    0.09120    1.000
    H14      H        0.27540    0.88230    0.11900    1.000
    C41      C        0.06360    0.83790    0.11550    1.000
    C42      C        0.00420    0.83680    0.19160    1.000
    C43      C        0.96610    0.42360    0.23320    1.000
    C44      C        0.04300    0.48950    0.25980    1.000
    C45      C        0.18850    0.50770    0.27940    1.000
    H15      H        0.27280    0.47760    0.27790    1.000
    C46      C        0.18710    0.58150    0.30270    1.000
    H16      H        0.27000    0.60860    0.32010    1.000
    C47      C        0.04230    0.60450    0.29450    1.000
    C48      C        0.97400    0.67610    0.30650    1.000
    C49      C        0.93810    0.83440    0.44180    1.000
    C50      C        0.86200    0.83060    0.51290    1.000
    C51      C        0.72060    0.84850    0.53260    1.000
    H17      H        0.64270    0.86770    0.50230    1.000
    C52      C        0.71630    0.83140    0.60990    1.000
    H18      H        0.63470    0.83830    0.64000    1.000
    C53      C        0.85240    0.80360    0.63090    1.000
    C54      C        0.91310    0.77500    0.70180    1.000
    O56      O        0.91800    0.49890    0.92300    1.000
    N5       N        0.85100    0.55420    0.90790    1.000
    O57      O        0.80600    0.50270    0.96670    1.000
    N6       N        0.78700    0.55890    0.92590    1.000
    Dy7      Dy       0.76379    0.18504    0.65925    1.000
    Dy8      Dy       0.79013    0.29596    0.20841    1.000
    O58      O        0.64160    0.26380    0.57520    1.000
    O59      O        0.40920    0.26400    0.61960    1.000
    O60      O        0.52260    0.30720    0.44040    1.000
    O61      O        0.40800    0.36080    0.25710    1.000
    O62      O        0.62770    0.31390    0.30190    1.000
    O63      O        0.45610    0.86880    0.28250    1.000
    O64      O        0.67690    0.92220    0.27320    1.000
    O65      O        0.55000    0.04980    0.23140    1.000
    O66      O        0.44090    0.22460    0.16680    1.000
    O67      O        0.66560    0.18350    0.21090    1.000
    O68      O        0.64700    0.34420    0.11550    1.000
    O69      O        0.42110    0.32850    0.05730    1.000
    O70      O        0.55270    0.30380    0.92820    1.000
    O71      O        0.44670    0.26350    0.79180    1.000
    O72      O        0.68080    0.26360    0.74980    1.000
    O73      O        0.78100    0.05610    0.63450    1.000
    O74      O        0.61430    0.11390    0.56810    1.000
    C55      C        0.50330    0.27650    0.57080    1.000
    C56      C        0.43610    0.30830    0.50020    1.000
    C57      C        0.30110    0.34140    0.48370    1.000
    H19      H        0.22390    0.35010    0.51590    1.000
    C58      C        0.30200    0.35960    0.40880    1.000
    H20      H        0.22460    0.38230    0.38100    1.000
    C59      C        0.43640    0.33790    0.38450    1.000
    C60      C        0.49580    0.33680    0.30840    1.000
    C61      C        0.53390    0.92360    0.26680    1.000
    C62      C        0.45700    0.98950    0.24020    1.000
    C63      C        0.31150    0.00770    0.22060    1.000
    H21      H        0.22720    0.97760    0.22210    1.000
    C64      C        0.31290    0.08150    0.19730    1.000
    H22      H        0.23000    0.10860    0.17990    1.000
    C65      C        0.45770    0.10450    0.20550    1.000
    C66      C        0.52600    0.17610    0.19350    1.000
    C67      C        0.56190    0.33440    0.05820    1.000
    C68      C        0.63800    0.33060    0.98710    1.000
    C69      C        0.77940    0.34850    0.96740    1.000
    H23      H        0.85730    0.36770    0.99770    1.000
    C70      C        0.78370    0.33140    0.89010    1.000
    H24      H        0.86530    0.33830    0.86000    1.000
    C71      C        0.64760    0.30360    0.86910    1.000
    C72      C        0.58690    0.27500    0.79820    1.000
    O75      O        0.58200    0.99890    0.57700    1.000
    N7       N        0.64900    0.05420    0.59210    1.000
    O76      O        0.69400    0.00270    0.53330    1.000
    N8       N        0.71300    0.05890    0.57410    1.000
