# CIF file generated by openbabel 3.1.0, see https://openbabel.org
data_I
_chemical_name_common 'image0'
_cell_length_a 12.308
_cell_length_b 21.532
_cell_length_c 19.998
_cell_angle_alpha 90
_cell_angle_beta 90
_cell_angle_gamma 90
_space_group_name_H-M_alt 'P 1'
_space_group_name_Hall 'P 1'
loop_
    _symmetry_equiv_pos_as_xyz
    x,y,z
loop_
    _atom_site_label
    _atom_site_type_symbol
    _atom_site_fract_x
    _atom_site_fract_y
    _atom_site_fract_z
    _atom_site_occupancy
    V1       V        0.49789    0.55603    0.33413    1.000
    V2       V        0.78315    0.60508    0.33365    1.000
    V3       V        0.62750    0.33762    0.15826    1.000
    V4       V        0.88714    0.38288    0.15796    1.000
    V5       V        0.70276    0.46474    0.07425    1.000
    O1       O        0.94630    0.46010    0.31530    1.000
    O2       O        0.83700    0.42110    0.07510    1.000
    O3       O        0.77510    0.53660    0.39340    1.000
    O4       O        0.39520    0.49120    0.31530    1.000
    O5       O        0.78130    0.32030    0.14330    1.000
    O6       O        0.72320    0.42990    0.18370    1.000
    O7       O        0.62680    0.60260    0.32780    1.000
    O8       O        0.50390    0.38300    0.18630    1.000
    O9       O        0.63130    0.38480    0.07820    1.000
    O10      O        0.57050    0.50480    0.39450    1.000
    O11      O        0.93270    0.58570    0.31690    1.000
    N1       N        0.24400    0.30780    0.46220    1.000
    N2       N        0.27700    0.36730    0.44980    1.000
    N3       N        0.41630    0.32240    0.49430    1.000
    C1       C        0.33200    0.28210    0.49000    1.000
    C2       C        0.37700    0.37410    0.47100    1.000
    H1       H        0.41460    0.41130    0.46960    1.000
    N4       N        0.75960    0.19370    0.45630    1.000
    N5       N        0.93630    0.21060    0.44200    1.000
    C3       C        0.84450    0.22710    0.47390    1.000
    N6       N        0.79900    0.15620    0.40800    1.000
    C4       C        0.90600    0.16530    0.40300    1.000
    H2       H        0.95200    0.14280    0.37480    1.000
    Ag1      Ag       0.09440    0.26157    0.42688    1.000
    Ag2      Ag       0.58365    0.18851    0.47209    1.000
    Ag3      Ag       0.45450    0.44930    0.44870    1.000
    W1       W        0.49789    0.55603    0.16587    1.000
    W2       W        0.78315    0.60508    0.16635    1.000
    W3       W        0.62750    0.33762    0.34174    1.000
    W4       W        0.88714    0.38288    0.34204    1.000
    W5       W        0.70276    0.46474    0.42575    1.000
    V6       V        0.50211    0.44397    0.83413    1.000
    V7       V        0.21685    0.39492    0.83365    1.000
    V8       V        0.37250    0.66238    0.65826    1.000
    V9       V        0.11286    0.61712    0.65796    1.000
    V10      V        0.29724    0.53526    0.57425    1.000
    O12      O        0.05370    0.53990    0.81530    1.000
    O13      O        0.16300    0.57890    0.57510    1.000
    O14      O        0.22490    0.46340    0.89340    1.000
    O15      O        0.60480    0.50880    0.81530    1.000
    O16      O        0.21870    0.67970    0.64330    1.000
    O17      O        0.27680    0.57010    0.68370    1.000
    O18      O        0.37320    0.39740    0.82780    1.000
    O19      O        0.49610    0.61700    0.68630    1.000
    O20      O        0.36870    0.61520    0.57820    1.000
    O21      O        0.42950    0.49520    0.89450    1.000
    O22      O        0.06730    0.41430    0.81690    1.000
    N7       N        0.75600    0.69220    0.96220    1.000
    N8       N        0.72300    0.63270    0.94980    1.000
    N9       N        0.58370    0.67760    0.99430    1.000
    C5       C        0.66800    0.71790    0.99000    1.000
    C6       C        0.62300    0.62590    0.97100    1.000
    H3       H        0.58540    0.58870    0.96960    1.000
    N10      N        0.24040    0.80630    0.95630    1.000
    N11      N        0.06370    0.78940    0.94200    1.000
    C7       C        0.15550    0.77290    0.97390    1.000
    N12      N        0.20100    0.84380    0.90800    1.000
    C8       C        0.09400    0.83470    0.90300    1.000
    H4       H        0.04800    0.85720    0.87480    1.000
    Ag4      Ag       0.90560    0.73843    0.92688    1.000
    Ag5      Ag       0.41635    0.81149    0.97209    1.000
    Ag6      Ag       0.54550    0.55070    0.94870    1.000
    W6       W        0.50211    0.44397    0.66587    1.000
    W7       W        0.21685    0.39492    0.66635    1.000
    W8       W        0.37250    0.66238    0.84174    1.000
    W9       W        0.11286    0.61712    0.84204    1.000
    W10      W        0.29724    0.53526    0.92575    1.000
    V11      V        0.50211    0.05603    0.16587    1.000
    V12      V        0.21685    0.10508    0.16635    1.000
    V13      V        0.37250    0.83762    0.34174    1.000
    V14      V        0.11286    0.88288    0.34204    1.000
    V15      V        0.29724    0.96474    0.42575    1.000
    O23      O        0.05370    0.96010    0.18470    1.000
    O24      O        0.16300    0.92110    0.42490    1.000
    O25      O        0.22490    0.03660    0.10660    1.000
    O26      O        0.60480    0.99120    0.18470    1.000
    O27      O        0.21870    0.82030    0.35670    1.000
    O28      O        0.27680    0.92990    0.31630    1.000
    O29      O        0.37320    0.10260    0.17220    1.000
    O30      O        0.49610    0.88300    0.31370    1.000
    O31      O        0.36870    0.88480    0.42180    1.000
    O32      O        0.42950    0.00480    0.10550    1.000
    O33      O        0.06730    0.08570    0.18310    1.000
    N13      N        0.75600    0.80780    0.03780    1.000
    N14      N        0.72300    0.86730    0.05020    1.000
    N15      N        0.58370    0.82240    0.00570    1.000
    C9       C        0.66800    0.78210    0.01000    1.000
    C10      C        0.62300    0.87410    0.02900    1.000
    H5       H        0.58540    0.91130    0.03040    1.000
    N16      N        0.24040    0.69370    0.04370    1.000
    N17      N        0.06370    0.71060    0.05800    1.000
    C11      C        0.15550    0.72710    0.02610    1.000
    N18      N        0.20100    0.65620    0.09200    1.000
    C12      C        0.09400    0.66530    0.09700    1.000
    H6       H        0.04800    0.64280    0.12520    1.000
    Ag7      Ag       0.90560    0.76157    0.07312    1.000
    Ag8      Ag       0.41635    0.68851    0.02791    1.000
    Ag9      Ag       0.54550    0.94930    0.05130    1.000
    W11      W        0.50211    0.05603    0.33413    1.000
    W12      W        0.21685    0.10508    0.33365    1.000
    W13      W        0.37250    0.83762    0.15826    1.000
    W14      W        0.11286    0.88288    0.15796    1.000
    W15      W        0.29724    0.96474    0.07425    1.000
    V16      V        0.49789    0.94397    0.66587    1.000
    V17      V        0.78315    0.89492    0.66635    1.000
    V18      V        0.62750    0.16238    0.84174    1.000
    V19      V        0.88714    0.11712    0.84204    1.000
    V20      V        0.70276    0.03526    0.92575    1.000
    O34      O        0.94630    0.03990    0.68470    1.000
    O35      O        0.83700    0.07890    0.92490    1.000
    O36      O        0.77510    0.96340    0.60660    1.000
    O37      O        0.39520    0.00880    0.68470    1.000
    O38      O        0.78130    0.17970    0.85670    1.000
    O39      O        0.72320    0.07010    0.81630    1.000
    O40      O        0.62680    0.89740    0.67220    1.000
    O41      O        0.50390    0.11700    0.81370    1.000
    O42      O        0.63130    0.11520    0.92180    1.000
    O43      O        0.57050    0.99520    0.60550    1.000
    O44      O        0.93270    0.91430    0.68310    1.000
    N19      N        0.24400    0.19220    0.53780    1.000
    N20      N        0.27700    0.13270    0.55020    1.000
    N21      N        0.41630    0.17760    0.50570    1.000
    C13      C        0.33200    0.21790    0.51000    1.000
    C14      C        0.37700    0.12590    0.52900    1.000
    H7       H        0.41460    0.08870    0.53040    1.000
    N22      N        0.75960    0.30630    0.54370    1.000
    N23      N        0.93630    0.28940    0.55800    1.000
    C15      C        0.84450    0.27290    0.52610    1.000
    N24      N        0.79900    0.34380    0.59200    1.000
    C16      C        0.90600    0.33470    0.59700    1.000
    H8       H        0.95200    0.35720    0.62520    1.000
    Ag10     Ag       0.09440    0.23843    0.57312    1.000
    Ag11     Ag       0.58365    0.31149    0.52791    1.000
    Ag12     Ag       0.45450    0.05070    0.55130    1.000
    W16      W        0.49789    0.94397    0.83413    1.000
    W17      W        0.78315    0.89492    0.83365    1.000
    W18      W        0.62750    0.16238    0.65826    1.000
    W19      W        0.88714    0.11712    0.65796    1.000
    W20      W        0.70276    0.03526    0.57425    1.000
    O45      O        0.05370    0.53990    0.68470    1.000
    O46      O        0.16300    0.57890    0.92490    1.000
    O47      O        0.22490    0.46340    0.60660    1.000
    O48      O        0.60480    0.50880    0.68470    1.000
    O49      O        0.21870    0.67970    0.85670    1.000
    O50      O        0.27680    0.57010    0.81630    1.000
    O51      O        0.37320    0.39740    0.67220    1.000
    O52      O        0.49610    0.61700    0.81370    1.000
    O53      O        0.36870    0.61520    0.92180    1.000
    O54      O        0.42950    0.49520    0.60550    1.000
    O55      O        0.06730    0.41430    0.68310    1.000
    N25      N        0.75600    0.69220    0.53780    1.000
    N26      N        0.72300    0.63270    0.55020    1.000
    N27      N        0.58370    0.67760    0.50570    1.000
    C17      C        0.66800    0.71790    0.51000    1.000
    C18      C        0.62300    0.62590    0.52900    1.000
    H9       H        0.58540    0.58870    0.53040    1.000
    N28      N        0.24040    0.80630    0.54370    1.000
    N29      N        0.06370    0.78940    0.55800    1.000
    C19      C        0.15550    0.77290    0.52610    1.000
    N30      N        0.20100    0.84380    0.59200    1.000
    C20      C        0.09400    0.83470    0.59700    1.000
    H10      H        0.04800    0.85720    0.62520    1.000
    Ag13     Ag       0.90560    0.73843    0.57312    1.000
    Ag14     Ag       0.41635    0.81149    0.52791    1.000
    Ag15     Ag       0.54550    0.55070    0.55130    1.000
    O56      O        0.94630    0.46010    0.18470    1.000
    O57      O        0.83700    0.42110    0.42490    1.000
    O58      O        0.77510    0.53660    0.10660    1.000
    O59      O        0.39520    0.49120    0.18470    1.000
    O60      O        0.78130    0.32030    0.35670    1.000
    O61      O        0.72320    0.42990    0.31630    1.000
    O62      O        0.62680    0.60260    0.17220    1.000
    O63      O        0.50390    0.38300    0.31370    1.000
    O64      O        0.63130    0.38480    0.42180    1.000
    O65      O        0.57050    0.50480    0.10550    1.000
    O66      O        0.93270    0.58570    0.18310    1.000
    N31      N        0.24400    0.30780    0.03780    1.000
    N32      N        0.27700    0.36730    0.05020    1.000
    N33      N        0.41630    0.32240    0.00570    1.000
    C21      C        0.33200    0.28210    0.01000    1.000
    C22      C        0.37700    0.37410    0.02900    1.000
    H11      H        0.41460    0.41130    0.03040    1.000
    N34      N        0.75960    0.19370    0.04370    1.000
    N35      N        0.93630    0.21060    0.05800    1.000
    C23      C        0.84450    0.22710    0.02610    1.000
    N36      N        0.79900    0.15620    0.09200    1.000
    C24      C        0.90600    0.16530    0.09700    1.000
    H12      H        0.95200    0.14280    0.12520    1.000
    Ag16     Ag       0.09440    0.26157    0.07312    1.000
    Ag17     Ag       0.58365    0.18851    0.02791    1.000
    Ag18     Ag       0.45450    0.44930    0.05130    1.000
    O67      O        0.94630    0.03990    0.81530    1.000
    O68      O        0.83700    0.07890    0.57510    1.000
    O69      O        0.77510    0.96340    0.89340    1.000
    O70      O        0.39520    0.00880    0.81530    1.000
    O71      O        0.78130    0.17970    0.64330    1.000
    O72      O        0.72320    0.07010    0.68370    1.000
    O73      O        0.62680    0.89740    0.82780    1.000
    O74      O        0.50390    0.11700    0.68630    1.000
    O75      O        0.63130    0.11520    0.57820    1.000
    O76      O        0.57050    0.99520    0.89450    1.000
    O77      O        0.93270    0.91430    0.81690    1.000
    N37      N        0.24400    0.19220    0.96220    1.000
    N38      N        0.27700    0.13270    0.94980    1.000
    N39      N        0.41630    0.17760    0.99430    1.000
    C25      C        0.33200    0.21790    0.99000    1.000
    C26      C        0.37700    0.12590    0.97100    1.000
    H13      H        0.41460    0.08870    0.96960    1.000
    N40      N        0.75960    0.30630    0.95630    1.000
    N41      N        0.93630    0.28940    0.94200    1.000
    C27      C        0.84450    0.27290    0.97390    1.000
    N42      N        0.79900    0.34380    0.90800    1.000
    C28      C        0.90600    0.33470    0.90300    1.000
    H14      H        0.95200    0.35720    0.87480    1.000
    Ag19     Ag       0.09440    0.23843    0.92688    1.000
    Ag20     Ag       0.58365    0.31149    0.97209    1.000
    Ag21     Ag       0.45450    0.05070    0.94870    1.000
    O78      O        0.05370    0.96010    0.31530    1.000
    O79      O        0.16300    0.92110    0.07510    1.000
    O80      O        0.22490    0.03660    0.39340    1.000
    O81      O        0.60480    0.99120    0.31530    1.000
    O82      O        0.21870    0.82030    0.14330    1.000
    O83      O        0.27680    0.92990    0.18370    1.000
    O84      O        0.37320    0.10260    0.32780    1.000
    O85      O        0.49610    0.88300    0.18630    1.000
    O86      O        0.36870    0.88480    0.07820    1.000
    O87      O        0.42950    0.00480    0.39450    1.000
    O88      O        0.06730    0.08570    0.31690    1.000
    N43      N        0.75600    0.80780    0.46220    1.000
    N44      N        0.72300    0.86730    0.44980    1.000
    N45      N        0.58370    0.82240    0.49430    1.000
    C29      C        0.66800    0.78210    0.49000    1.000
    C30      C        0.62300    0.87410    0.47100    1.000
    H15      H        0.58540    0.91130    0.46960    1.000
    N46      N        0.24040    0.69370    0.45630    1.000
    N47      N        0.06370    0.71060    0.44200    1.000
    C31      C        0.15550    0.72710    0.47390    1.000
    N48      N        0.20100    0.65620    0.40800    1.000
    C32      C        0.09400    0.66530    0.40300    1.000
    H16      H        0.04800    0.64280    0.37480    1.000
    Ag22     Ag       0.90560    0.76157    0.42688    1.000
    Ag23     Ag       0.41635    0.68851    0.47209    1.000
    Ag24     Ag       0.54550    0.94930    0.44870    1.000
    V21      V        0.42328    0.42870    0.25000    1.000
    V22      V        0.96792    0.52306    0.25000    1.000
    Si1      Si       0.69950    0.47080    0.25000    1.000
    O89      O        0.64500    0.31700    0.25000    1.000
    O90      O        0.89400    0.36080    0.25000    1.000
    O91      O        0.45600    0.59140    0.25000    1.000
    O92      O        0.57350    0.49490    0.25000    1.000
    O93      O        0.78100    0.52950    0.25000    1.000
    O94      O        0.78000    0.65000    0.25000    1.000
    V23      V        0.57672    0.57130    0.75000    1.000
    V24      V        0.03208    0.47694    0.75000    1.000
    Si2      Si       0.30050    0.52920    0.75000    1.000
    O95      O        0.35500    0.68300    0.75000    1.000
    O96      O        0.10600    0.63920    0.75000    1.000
    O97      O        0.54400    0.40860    0.75000    1.000
    O98      O        0.42650    0.50510    0.75000    1.000
    O99      O        0.21900    0.47050    0.75000    1.000
    O100     O        0.22000    0.35000    0.75000    1.000
    V25      V        0.57672    0.92870    0.25000    1.000
    V26      V        0.03208    0.02306    0.25000    1.000
    Si3      Si       0.30050    0.97080    0.25000    1.000
    O101     O        0.35500    0.81700    0.25000    1.000
    O102     O        0.10600    0.86080    0.25000    1.000
    O103     O        0.54400    0.09140    0.25000    1.000
    O104     O        0.42650    0.99490    0.25000    1.000
    O105     O        0.21900    0.02950    0.25000    1.000
    O106     O        0.22000    0.15000    0.25000    1.000
    V27      V        0.42328    0.07130    0.75000    1.000
    V28      V        0.96792    0.97694    0.75000    1.000
    Si4      Si       0.69950    0.02920    0.75000    1.000
    O107     O        0.64500    0.18300    0.75000    1.000
    O108     O        0.89400    0.13920    0.75000    1.000
    O109     O        0.45600    0.90860    0.75000    1.000
    O110     O        0.57350    0.00510    0.75000    1.000
    O111     O        0.78100    0.97050    0.75000    1.000
    O112     O        0.78000    0.85000    0.75000    1.000
