# CIF file generated by openbabel 3.1.0, see https://openbabel.org
data_I
_chemical_name_common 'IKEBUV_clean'
_cell_length_a 8.4015
_cell_length_b 8.4015
_cell_length_c 12.015
_cell_angle_alpha 90
_cell_angle_beta 90
_cell_angle_gamma 90
_space_group_name_H-M_alt 'P 1'
_space_group_name_Hall 'P 1'
loop_
    _symmetry_equiv_pos_as_xyz
    x,y,z
loop_
    _atom_site_label
    _atom_site_type_symbol
    _atom_site_fract_x
    _atom_site_fract_y
    _atom_site_fract_z
    _atom_site_occupancy
    Cu1      Cu       0.80664    0.40272    0.37512    1.000
    Cu2      Cu       0.19336    0.59728    0.87512    1.000
    Cu3      Cu       0.59728    0.80664    0.12512    1.000
    Cu4      Cu       0.40272    0.19336    0.62512    1.000
    H1       H        0.83320    0.02890    0.41030    1.000
    H2       H        0.67920    0.93760    0.37460    1.000
    H3       H        0.16680    0.97110    0.91030    1.000
    H4       H        0.32080    0.06240    0.87460    1.000
    H5       H        0.97110    0.83320    0.16030    1.000
    H6       H        0.06240    0.67920    0.12460    1.000
    H7       H        0.02890    0.16680    0.66030    1.000
    H8       H        0.93760    0.32080    0.62460    1.000
    C1       C        0.74150    0.11190    0.26250    1.000
    C2       C        0.72700    0.04240    0.38000    1.000
    C3       C        0.62980    0.14120    0.46150    1.000
    C4       C        0.25850    0.88810    0.76250    1.000
    C5       C        0.27300    0.95760    0.88000    1.000
    C6       C        0.37020    0.85880    0.96150    1.000
    C7       C        0.88810    0.74150    0.01250    1.000
    C8       C        0.95760    0.72700    0.13000    1.000
    C9       C        0.85880    0.62980    0.21150    1.000
    C10      C        0.11190    0.25850    0.51250    1.000
    C11      C        0.04240    0.27300    0.63000    1.000
    C12      C        0.14120    0.37020    0.71150    1.000
    O1       O        0.76790    0.25920    0.25290    1.000
    O2       O        0.73290    0.02160    0.18230    1.000
    O3       O        0.64810    0.28870    0.46620    1.000
    O4       O        0.53590    0.06630    0.52330    1.000
    O5       O        0.23210    0.74080    0.75290    1.000
    O6       O        0.26710    0.97840    0.68230    1.000
    O7       O        0.35190    0.71130    0.96620    1.000
    O8       O        0.46410    0.93370    0.02330    1.000
    O9       O        0.74080    0.76790    0.00290    1.000
    O10      O        0.97840    0.73290    0.93230    1.000
    O11      O        0.71130    0.64810    0.21620    1.000
    O12      O        0.93370    0.53590    0.27330    1.000
    O13      O        0.25920    0.23210    0.50290    1.000
    O14      O        0.02160    0.26710    0.43230    1.000
    O15      O        0.28870    0.35190    0.71620    1.000
    O16      O        0.06630    0.46410    0.77330    1.000
