# CIF file generated by openbabel 3.1.0, see https://openbabel.org
data_I
_chemical_name_common 'image0'
_cell_length_a 13.758
_cell_length_b 25.2156
_cell_length_c 14.9205
_cell_angle_alpha 90
_cell_angle_beta 111.399
_cell_angle_gamma 90
_space_group_name_H-M_alt 'P 1'
_space_group_name_Hall 'P 1'
loop_
    _symmetry_equiv_pos_as_xyz
    x,y,z
loop_
    _atom_site_label
    _atom_site_type_symbol
    _atom_site_fract_x
    _atom_site_fract_y
    _atom_site_fract_z
    _atom_site_occupancy
    N1       N        0.42140    0.01529    0.16930    1.000
    O1       O        0.37610    0.07082    0.95920    1.000
    O2       O        0.24260    0.08881    0.00200    1.000
    C1       C        0.17610    0.31290    0.68360    1.000
    C2       C        0.36010    0.16950    0.86930    1.000
    H1       H        0.41340    0.14670    0.86980    1.000
    C3       C        0.35030    0.21800    0.82420    1.000
    C4       C        0.30590    0.10020    0.96090    1.000
    C5       C        0.26040    0.30430    0.76680    1.000
    C6       C        0.21560    0.18880    0.91210    1.000
    H2       H        0.17010    0.17950    0.94270    1.000
    C7       C        0.17420    0.35940    0.63010    1.000
    H3       H        0.11810    0.36520    0.57280    1.000
    C8       C        0.29340    0.15440    0.91320    1.000
    C9       C        0.20440    0.23780    0.86510    1.000
    C10      C        0.27260    0.25360    0.82040    1.000
    O3       O        0.17780    0.44710    0.52090    1.000
    O4       O        0.31680    0.47990    0.63060    1.000
    C11      C        0.25220    0.39610    0.66020    1.000
    C12      C        0.33870    0.34390    0.79560    1.000
    C13      C        0.33440    0.38880    0.74330    1.000
    H4       H        0.38730    0.41400    0.76450    1.000
    C14      C        0.24780    0.44610    0.59860    1.000
    C15      C        0.39880    0.98600    0.24960    1.000
    H5       H        0.33650    0.00050    0.25630    1.000
    H6       H        0.38660    0.94870    0.23330    1.000
    C16      C        0.50970    0.99180    0.15680    1.000
    H7       H        0.53040    0.01360    0.11310    1.000
    H8       H        0.49040    0.95720    0.12750    1.000
    C17      C        0.44840    0.07000    0.20700    1.000
    H9       H        0.39340    0.08400    0.22650    1.000
    H10      H        0.45430    0.09270    0.15680    1.000
    N2       N        0.43440    0.34610    0.88570    1.000
    N3       N        0.10900    0.26680    0.86990    1.000
    O5       O        0.04090    0.24570    0.88690    1.000
    O6       O        0.10810    0.31340    0.85400    1.000
    O7       O        0.43570    0.31490    0.94800    1.000
    O8       O        0.51150    0.37560    0.89670    1.000
    Zn1      Zn       0.29612    0.01403    0.03865    1.000
    C18      C        0.46050    0.95920    0.20130    1.000
    H11      H        0.40230    0.93700    0.19960    1.000
    H12      H        0.49020    0.94440    0.15700    1.000
    C19      C        0.51610    0.04420    0.16250    1.000
    H13      H        0.49860    0.08100    0.14570    1.000
    H14      H        0.53590    0.02810    0.11260    1.000
    C20      C        0.39180    0.04080    0.23980    1.000
    H15      H        0.33480    0.02140    0.24810    1.000
    H16      H        0.36720    0.07630    0.21810    1.000
    N4       N        0.93430    0.28360    0.85390    1.000
    N5       N        0.43400    0.21780    0.77710    1.000
    O9       O        0.46820    0.26080    0.76360    1.000
    O10      O        0.93430    0.23670    0.83610    1.000
    O11      O        0.02070    0.30570    0.90120    1.000
    N6       N        0.92140    0.51529    0.16930    1.000
    O12      O        0.87610    0.57082    0.95920    1.000
    O13      O        0.74260    0.58881    0.00200    1.000
    C21      C        0.67610    0.81290    0.68360    1.000
    C22      C        0.86010    0.66950    0.86930    1.000
    H17      H        0.91340    0.64670    0.86980    1.000
    C23      C        0.85030    0.71800    0.82420    1.000
    C24      C        0.80590    0.60020    0.96090    1.000
    C25      C        0.76040    0.80430    0.76680    1.000
    C26      C        0.71560    0.68880    0.91210    1.000
    H18      H        0.67010    0.67950    0.94270    1.000
    C27      C        0.67420    0.85940    0.63010    1.000
    H19      H        0.61810    0.86520    0.57280    1.000
    C28      C        0.79340    0.65440    0.91320    1.000
    C29      C        0.70440    0.73780    0.86510    1.000
    C30      C        0.77260    0.75360    0.82040    1.000
    O14      O        0.67780    0.94710    0.52090    1.000
    O15      O        0.81680    0.97990    0.63060    1.000
    C31      C        0.75220    0.89610    0.66020    1.000
    C32      C        0.83870    0.84390    0.79560    1.000
    C33      C        0.83440    0.88880    0.74330    1.000
    H20      H        0.88730    0.91400    0.76450    1.000
    C34      C        0.74780    0.94610    0.59860    1.000
    C35      C        0.89880    0.48600    0.24960    1.000
    H21      H        0.83650    0.50050    0.25630    1.000
    H22      H        0.88660    0.44870    0.23330    1.000
    C36      C        0.00970    0.49180    0.15680    1.000
    H23      H        0.03040    0.51360    0.11310    1.000
    H24      H        0.99040    0.45720    0.12750    1.000
    C37      C        0.94840    0.57000    0.20700    1.000
    H25      H        0.89340    0.58400    0.22650    1.000
    H26      H        0.95430    0.59270    0.15680    1.000
    N7       N        0.93440    0.84610    0.88570    1.000
    N8       N        0.60900    0.76680    0.86990    1.000
    O16      O        0.54090    0.74570    0.88690    1.000
    O17      O        0.60810    0.81340    0.85400    1.000
    O18      O        0.93570    0.81490    0.94800    1.000
    O19      O        0.01150    0.87560    0.89670    1.000
    Zn2      Zn       0.79612    0.51403    0.03865    1.000
    C38      C        0.96050    0.45920    0.20130    1.000
    H27      H        0.90230    0.43700    0.19960    1.000
    H28      H        0.99020    0.44440    0.15700    1.000
    C39      C        0.01610    0.54420    0.16250    1.000
    H29      H        0.99860    0.58100    0.14570    1.000
    H30      H        0.03590    0.52810    0.11260    1.000
    C40      C        0.89180    0.54080    0.23980    1.000
    H31      H        0.83480    0.52140    0.24810    1.000
    H32      H        0.86720    0.57630    0.21810    1.000
    N9       N        0.43430    0.78360    0.85390    1.000
    N10      N        0.93400    0.71780    0.77710    1.000
    O20      O        0.96820    0.76080    0.76360    1.000
    O21      O        0.43430    0.73670    0.83610    1.000
    O22      O        0.52070    0.80570    0.90120    1.000
    N11      N        0.57860    0.01529    0.33070    1.000
    O23      O        0.62390    0.07082    0.54080    1.000
    O24      O        0.75740    0.08881    0.49800    1.000
    C41      C        0.82390    0.31290    0.81640    1.000
    C42      C        0.63990    0.16950    0.63070    1.000
    H33      H        0.58660    0.14670    0.63020    1.000
    C43      C        0.64970    0.21800    0.67580    1.000
    C44      C        0.69410    0.10020    0.53910    1.000
    C45      C        0.73960    0.30430    0.73320    1.000
    C46      C        0.78440    0.18880    0.58790    1.000
    H34      H        0.82990    0.17950    0.55730    1.000
    C47      C        0.82580    0.35940    0.86990    1.000
    H35      H        0.88190    0.36520    0.92720    1.000
    C48      C        0.70660    0.15440    0.58680    1.000
    C49      C        0.79560    0.23780    0.63490    1.000
    C50      C        0.72740    0.25360    0.67960    1.000
    O25      O        0.82220    0.44710    0.97910    1.000
    O26      O        0.68320    0.47990    0.86940    1.000
    C51      C        0.74780    0.39610    0.83980    1.000
    C52      C        0.66130    0.34390    0.70440    1.000
    C53      C        0.66560    0.38880    0.75670    1.000
    H36      H        0.61270    0.41400    0.73550    1.000
    C54      C        0.75220    0.44610    0.90140    1.000
    C55      C        0.60120    0.98600    0.25040    1.000
    H37      H        0.66350    0.00050    0.24370    1.000
    H38      H        0.61340    0.94870    0.26670    1.000
    C56      C        0.49030    0.99180    0.34320    1.000
    H39      H        0.46960    0.01360    0.38690    1.000
    H40      H        0.50960    0.95720    0.37250    1.000
    C57      C        0.55160    0.07000    0.29300    1.000
    H41      H        0.60660    0.08400    0.27350    1.000
    H42      H        0.54570    0.09270    0.34320    1.000
    N12      N        0.56560    0.34610    0.61430    1.000
    N13      N        0.89100    0.26680    0.63010    1.000
    O27      O        0.95910    0.24570    0.61310    1.000
    O28      O        0.89190    0.31340    0.64600    1.000
    O29      O        0.56430    0.31490    0.55200    1.000
    O30      O        0.48850    0.37560    0.60330    1.000
    Zn3      Zn       0.70388    0.01403    0.46135    1.000
    C58      C        0.53950    0.95920    0.29870    1.000
    H43      H        0.59770    0.93700    0.30040    1.000
    H44      H        0.50980    0.94440    0.34300    1.000
    C59      C        0.48390    0.04420    0.33750    1.000
    H45      H        0.50140    0.08100    0.35430    1.000
    H46      H        0.46410    0.02810    0.38740    1.000
    C60      C        0.60820    0.04080    0.26020    1.000
    H47      H        0.66520    0.02140    0.25190    1.000
    H48      H        0.63280    0.07630    0.28190    1.000
    N14      N        0.06570    0.28360    0.64610    1.000
    N15      N        0.56600    0.21780    0.72290    1.000
    O31      O        0.53180    0.26080    0.73640    1.000
    O32      O        0.06570    0.23670    0.66390    1.000
    O33      O        0.97930    0.30570    0.59880    1.000
    N16      N        0.07860    0.51529    0.33070    1.000
    O34      O        0.12390    0.57082    0.54080    1.000
    O35      O        0.25740    0.58881    0.49800    1.000
    C61      C        0.32390    0.81290    0.81640    1.000
    C62      C        0.13990    0.66950    0.63070    1.000
    H49      H        0.08660    0.64670    0.63020    1.000
    C63      C        0.14970    0.71800    0.67580    1.000
    C64      C        0.19410    0.60020    0.53910    1.000
    C65      C        0.23960    0.80430    0.73320    1.000
    C66      C        0.28440    0.68880    0.58790    1.000
    H50      H        0.32990    0.67950    0.55730    1.000
    C67      C        0.32580    0.85940    0.86990    1.000
    H51      H        0.38190    0.86520    0.92720    1.000
    C68      C        0.20660    0.65440    0.58680    1.000
    C69      C        0.29560    0.73780    0.63490    1.000
    C70      C        0.22740    0.75360    0.67960    1.000
    O36      O        0.32220    0.94710    0.97910    1.000
    O37      O        0.18320    0.97990    0.86940    1.000
    C71      C        0.24780    0.89610    0.83980    1.000
    C72      C        0.16130    0.84390    0.70440    1.000
    C73      C        0.16560    0.88880    0.75670    1.000
    H52      H        0.11270    0.91400    0.73550    1.000
    C74      C        0.25220    0.94610    0.90140    1.000
    C75      C        0.10120    0.48600    0.25040    1.000
    H53      H        0.16350    0.50050    0.24370    1.000
    H54      H        0.11340    0.44870    0.26670    1.000
    C76      C        0.99030    0.49180    0.34320    1.000
    H55      H        0.96960    0.51360    0.38690    1.000
    H56      H        0.00960    0.45720    0.37250    1.000
    C77      C        0.05160    0.57000    0.29300    1.000
    H57      H        0.10660    0.58400    0.27350    1.000
    H58      H        0.04570    0.59270    0.34320    1.000
    N17      N        0.06560    0.84610    0.61430    1.000
    N18      N        0.39100    0.76680    0.63010    1.000
    O38      O        0.45910    0.74570    0.61310    1.000
    O39      O        0.39190    0.81340    0.64600    1.000
    O40      O        0.06430    0.81490    0.55200    1.000
    O41      O        0.98850    0.87560    0.60330    1.000
    Zn4      Zn       0.20388    0.51403    0.46135    1.000
    C78      C        0.03950    0.45920    0.29870    1.000
    H59      H        0.09770    0.43700    0.30040    1.000
    H60      H        0.00980    0.44440    0.34300    1.000
    C79      C        0.98390    0.54420    0.33750    1.000
    H61      H        0.00140    0.58100    0.35430    1.000
    H62      H        0.96410    0.52810    0.38740    1.000
    C80      C        0.10820    0.54080    0.26020    1.000
    H63      H        0.16520    0.52140    0.25190    1.000
    H64      H        0.13280    0.57630    0.28190    1.000
    N19      N        0.56570    0.78360    0.64610    1.000
    N20      N        0.06600    0.71780    0.72290    1.000
    O42      O        0.03180    0.76080    0.73640    1.000
    O43      O        0.56570    0.73670    0.66390    1.000
    O44      O        0.47930    0.80570    0.59880    1.000
    O45      O        0.50000    0.17370    0.75000    1.000
    O46      O        0.00000    0.67370    0.75000    1.000
    N21      N        0.57860    0.98471    0.83070    1.000
    O47      O        0.62390    0.92918    0.04080    1.000
    O48      O        0.75740    0.91119    0.99800    1.000
    C81      C        0.82390    0.68710    0.31640    1.000
    C82      C        0.63990    0.83050    0.13070    1.000
    H65      H        0.58660    0.85330    0.13020    1.000
    C83      C        0.64970    0.78200    0.17580    1.000
    C84      C        0.69410    0.89980    0.03910    1.000
    C85      C        0.73960    0.69570    0.23320    1.000
    C86      C        0.78440    0.81120    0.08790    1.000
    H66      H        0.82990    0.82050    0.05730    1.000
    C87      C        0.82580    0.64060    0.36990    1.000
    H67      H        0.88190    0.63480    0.42720    1.000
    C88      C        0.70660    0.84560    0.08680    1.000
    C89      C        0.79560    0.76220    0.13490    1.000
    C90      C        0.72740    0.74640    0.17960    1.000
    O49      O        0.82220    0.55290    0.47910    1.000
    O50      O        0.68320    0.52010    0.36940    1.000
    C91      C        0.74780    0.60390    0.33980    1.000
    C92      C        0.66130    0.65610    0.20440    1.000
    C93      C        0.66560    0.61120    0.25670    1.000
    H68      H        0.61270    0.58600    0.23550    1.000
    C94      C        0.75220    0.55390    0.40140    1.000
    C95      C        0.60120    0.01400    0.75040    1.000
    H69      H        0.66350    0.99950    0.74370    1.000
    H70      H        0.61340    0.05130    0.76670    1.000
    C96      C        0.49030    0.00820    0.84320    1.000
    H71      H        0.46960    0.98640    0.88690    1.000
    H72      H        0.50960    0.04280    0.87250    1.000
    C97      C        0.55160    0.93000    0.79300    1.000
    H73      H        0.60660    0.91600    0.77350    1.000
    H74      H        0.54570    0.90730    0.84320    1.000
    N22      N        0.56560    0.65390    0.11430    1.000
    N23      N        0.89100    0.73320    0.13010    1.000
    O51      O        0.95910    0.75430    0.11310    1.000
    O52      O        0.89190    0.68660    0.14600    1.000
    O53      O        0.56430    0.68510    0.05200    1.000
    O54      O        0.48850    0.62440    0.10330    1.000
    Zn5      Zn       0.70388    0.98597    0.96135    1.000
    C98      C        0.53950    0.04080    0.79870    1.000
    H75      H        0.59770    0.06300    0.80040    1.000
    H76      H        0.50980    0.05560    0.84300    1.000
    C99      C        0.48390    0.95580    0.83750    1.000
    H77      H        0.50140    0.91900    0.85430    1.000
    H78      H        0.46410    0.97190    0.88740    1.000
    C100     C        0.60820    0.95920    0.76020    1.000
    H79      H        0.66520    0.97860    0.75190    1.000
    H80      H        0.63280    0.92370    0.78190    1.000
    N24      N        0.06570    0.71640    0.14610    1.000
    N25      N        0.56600    0.78220    0.22290    1.000
    O55      O        0.53180    0.73920    0.23640    1.000
    O56      O        0.06570    0.76330    0.16390    1.000
    O57      O        0.97930    0.69430    0.09880    1.000
    N26      N        0.07860    0.48471    0.83070    1.000
    O58      O        0.12390    0.42918    0.04080    1.000
    O59      O        0.25740    0.41119    0.99800    1.000
    C101     C        0.32390    0.18710    0.31640    1.000
    C102     C        0.13990    0.33050    0.13070    1.000
    H81      H        0.08660    0.35330    0.13020    1.000
    C103     C        0.14970    0.28200    0.17580    1.000
    C104     C        0.19410    0.39980    0.03910    1.000
    C105     C        0.23960    0.19570    0.23320    1.000
    C106     C        0.28440    0.31120    0.08790    1.000
    H82      H        0.32990    0.32050    0.05730    1.000
    C107     C        0.32580    0.14060    0.36990    1.000
    H83      H        0.38190    0.13480    0.42720    1.000
    C108     C        0.20660    0.34560    0.08680    1.000
    C109     C        0.29560    0.26220    0.13490    1.000
    C110     C        0.22740    0.24640    0.17960    1.000
    O60      O        0.32220    0.05290    0.47910    1.000
    O61      O        0.18320    0.02010    0.36940    1.000
    C111     C        0.24780    0.10390    0.33980    1.000
    C112     C        0.16130    0.15610    0.20440    1.000
    C113     C        0.16560    0.11120    0.25670    1.000
    H84      H        0.11270    0.08600    0.23550    1.000
    C114     C        0.25220    0.05390    0.40140    1.000
    C115     C        0.10120    0.51400    0.75040    1.000
    H85      H        0.16350    0.49950    0.74370    1.000
    H86      H        0.11340    0.55130    0.76670    1.000
    C116     C        0.99030    0.50820    0.84320    1.000
    H87      H        0.96960    0.48640    0.88690    1.000
    H88      H        0.00960    0.54280    0.87250    1.000
    C117     C        0.05160    0.43000    0.79300    1.000
    H89      H        0.10660    0.41600    0.77350    1.000
    H90      H        0.04570    0.40730    0.84320    1.000
    N27      N        0.06560    0.15390    0.11430    1.000
    N28      N        0.39100    0.23320    0.13010    1.000
    O62      O        0.45910    0.25430    0.11310    1.000
    O63      O        0.39190    0.18660    0.14600    1.000
    O64      O        0.06430    0.18510    0.05200    1.000
    O65      O        0.98850    0.12440    0.10330    1.000
    Zn6      Zn       0.20388    0.48597    0.96135    1.000
    C118     C        0.03950    0.54080    0.79870    1.000
    H91      H        0.09770    0.56300    0.80040    1.000
    H92      H        0.00980    0.55560    0.84300    1.000
    C119     C        0.98390    0.45580    0.83750    1.000
    H93      H        0.00140    0.41900    0.85430    1.000
    H94      H        0.96410    0.47190    0.88740    1.000
    C120     C        0.10820    0.45920    0.76020    1.000
    H95      H        0.16520    0.47860    0.75190    1.000
    H96      H        0.13280    0.42370    0.78190    1.000
    N29      N        0.56570    0.21640    0.14610    1.000
    N30      N        0.06600    0.28220    0.22290    1.000
    O66      O        0.03180    0.23920    0.23640    1.000
    O67      O        0.56570    0.26330    0.16390    1.000
    O68      O        0.47930    0.19430    0.09880    1.000
    N31      N        0.42140    0.98471    0.66930    1.000
    O69      O        0.37610    0.92918    0.45920    1.000
    O70      O        0.24260    0.91119    0.50200    1.000
    C121     C        0.17610    0.68710    0.18360    1.000
    C122     C        0.36010    0.83050    0.36930    1.000
    H97      H        0.41340    0.85330    0.36980    1.000
    C123     C        0.35030    0.78200    0.32420    1.000
    C124     C        0.30590    0.89980    0.46090    1.000
    C125     C        0.26040    0.69570    0.26680    1.000
    C126     C        0.21560    0.81120    0.41210    1.000
    H98      H        0.17010    0.82050    0.44270    1.000
    C127     C        0.17420    0.64060    0.13010    1.000
    H99      H        0.11810    0.63480    0.07280    1.000
    C128     C        0.29340    0.84560    0.41320    1.000
    C129     C        0.20440    0.76220    0.36510    1.000
    C130     C        0.27260    0.74640    0.32040    1.000
    O71      O        0.17780    0.55290    0.02090    1.000
    O72      O        0.31680    0.52010    0.13060    1.000
    C131     C        0.25220    0.60390    0.16020    1.000
    C132     C        0.33870    0.65610    0.29560    1.000
    C133     C        0.33440    0.61120    0.24330    1.000
    H100     H        0.38730    0.58600    0.26450    1.000
    C134     C        0.24780    0.55390    0.09860    1.000
    C135     C        0.39880    0.01400    0.74960    1.000
    H101     H        0.33650    0.99950    0.75630    1.000
    H102     H        0.38660    0.05130    0.73330    1.000
    C136     C        0.50970    0.00820    0.65680    1.000
    H103     H        0.53040    0.98640    0.61310    1.000
    H104     H        0.49040    0.04280    0.62750    1.000
    C137     C        0.44840    0.93000    0.70700    1.000
    H105     H        0.39340    0.91600    0.72650    1.000
    H106     H        0.45430    0.90730    0.65680    1.000
    N32      N        0.43440    0.65390    0.38570    1.000
    N33      N        0.10900    0.73320    0.36990    1.000
    O73      O        0.04090    0.75430    0.38690    1.000
    O74      O        0.10810    0.68660    0.35400    1.000
    O75      O        0.43570    0.68510    0.44800    1.000
    O76      O        0.51150    0.62440    0.39670    1.000
    Zn7      Zn       0.29612    0.98597    0.53865    1.000
    C138     C        0.46050    0.04080    0.70130    1.000
    H107     H        0.40230    0.06300    0.69960    1.000
    H108     H        0.49020    0.05560    0.65700    1.000
    C139     C        0.51610    0.95580    0.66250    1.000
    H109     H        0.49860    0.91900    0.64570    1.000
    H110     H        0.53590    0.97190    0.61260    1.000
    C140     C        0.39180    0.95920    0.73980    1.000
    H111     H        0.33480    0.97860    0.74810    1.000
    H112     H        0.36720    0.92370    0.71810    1.000
    N34      N        0.93430    0.71640    0.35390    1.000
    N35      N        0.43400    0.78220    0.27710    1.000
    O77      O        0.46820    0.73920    0.26360    1.000
    O78      O        0.93430    0.76330    0.33610    1.000
    O79      O        0.02070    0.69430    0.40120    1.000
    N36      N        0.92140    0.48471    0.66930    1.000
    O80      O        0.87610    0.42918    0.45920    1.000
    O81      O        0.74260    0.41119    0.50200    1.000
    C141     C        0.67610    0.18710    0.18360    1.000
    C142     C        0.86010    0.33050    0.36930    1.000
    H113     H        0.91340    0.35330    0.36980    1.000
    C143     C        0.85030    0.28200    0.32420    1.000
    C144     C        0.80590    0.39980    0.46090    1.000
    C145     C        0.76040    0.19570    0.26680    1.000
    C146     C        0.71560    0.31120    0.41210    1.000
    H114     H        0.67010    0.32050    0.44270    1.000
    C147     C        0.67420    0.14060    0.13010    1.000
    H115     H        0.61810    0.13480    0.07280    1.000
    C148     C        0.79340    0.34560    0.41320    1.000
    C149     C        0.70440    0.26220    0.36510    1.000
    C150     C        0.77260    0.24640    0.32040    1.000
    O82      O        0.67780    0.05290    0.02090    1.000
    O83      O        0.81680    0.02010    0.13060    1.000
    C151     C        0.75220    0.10390    0.16020    1.000
    C152     C        0.83870    0.15610    0.29560    1.000
    C153     C        0.83440    0.11120    0.24330    1.000
    H116     H        0.88730    0.08600    0.26450    1.000
    C154     C        0.74780    0.05390    0.09860    1.000
    C155     C        0.89880    0.51400    0.74960    1.000
    H117     H        0.83650    0.49950    0.75630    1.000
    H118     H        0.88660    0.55130    0.73330    1.000
    C156     C        0.00970    0.50820    0.65680    1.000
    H119     H        0.03040    0.48640    0.61310    1.000
    H120     H        0.99040    0.54280    0.62750    1.000
    C157     C        0.94840    0.43000    0.70700    1.000
    H121     H        0.89340    0.41600    0.72650    1.000
    H122     H        0.95430    0.40730    0.65680    1.000
    N37      N        0.93440    0.15390    0.38570    1.000
    N38      N        0.60900    0.23320    0.36990    1.000
    O84      O        0.54090    0.25430    0.38690    1.000
    O85      O        0.60810    0.18660    0.35400    1.000
    O86      O        0.93570    0.18510    0.44800    1.000
    O87      O        0.01150    0.12440    0.39670    1.000
    Zn8      Zn       0.79612    0.48597    0.53865    1.000
    C158     C        0.96050    0.54080    0.70130    1.000
    H123     H        0.90230    0.56300    0.69960    1.000
    H124     H        0.99020    0.55560    0.65700    1.000
    C159     C        0.01610    0.45580    0.66250    1.000
    H125     H        0.99860    0.41900    0.64570    1.000
    H126     H        0.03590    0.47190    0.61260    1.000
    C160     C        0.89180    0.45920    0.73980    1.000
    H127     H        0.83480    0.47860    0.74810    1.000
    H128     H        0.86720    0.42370    0.71810    1.000
    N39      N        0.43430    0.21640    0.35390    1.000
    N40      N        0.93400    0.28220    0.27710    1.000
    O88      O        0.96820    0.23920    0.26360    1.000
    O89      O        0.43430    0.26330    0.33610    1.000
    O90      O        0.52070    0.19430    0.40120    1.000
    O91      O        0.50000    0.82630    0.25000    1.000
    O92      O        0.00000    0.32630    0.25000    1.000
