# CIF file generated by openbabel 3.1.0, see https://openbabel.org
data_I
_chemical_name_common 'image0'
_cell_length_a 19.8319
_cell_length_b 19.8319
_cell_length_c 15.2208
_cell_angle_alpha 90
_cell_angle_beta 90
_cell_angle_gamma 120
_space_group_name_H-M_alt 'P 1'
_space_group_name_Hall 'P 1'
loop_
    _symmetry_equiv_pos_as_xyz
    x,y,z
loop_
    _atom_site_label
    _atom_site_type_symbol
    _atom_site_fract_x
    _atom_site_fract_y
    _atom_site_fract_z
    _atom_site_occupancy
    C1       C        0.46140    0.60650    0.41660    1.000
    C2       C        0.42970    0.47150    0.45480    1.000
    C3       C        0.48100    0.55100    0.46220    1.000
    C4       C        0.55120    0.58040    0.50630    1.000
    C5       C        0.27520    0.42810    0.48090    1.000
    H1       H        0.22290    0.40740    0.45630    1.000
    H2       H        0.29190    0.47890    0.50800    1.000
    H3       H        0.27450    0.39210    0.52550    1.000
    C6       C        0.58320    0.70510    0.61080    1.000
    H4       H        0.60560    0.76170    0.61500    1.000
    H5       H        0.60090    0.68680    0.66070    1.000
    H6       H        0.52630    0.67970    0.61160    1.000
    C7       C        0.31920    0.50680    0.08540    1.000
    C8       C        0.32680    0.46000    0.01420    1.000
    C9       C        0.30770    0.38310    0.02720    1.000
    C10      C        0.32450    0.34410    0.96260    1.000
    C11      C        0.36040    0.38210    0.88500    1.000
    C12      C        0.37940    0.45900    0.87200    1.000
    C13      C        0.36270    0.49800    0.93660    1.000
    S1       S        0.25780    0.33570    0.12260    1.000
    S2       S        0.30610    0.24690    0.97950    1.000
    S3       S        0.42590    0.50920    0.77420    1.000
    S4       S        0.38680    0.59620    0.92680    1.000
    C14      C        0.38790    0.34120    0.82330    1.000
    O1       O        0.34420    0.29590    0.76640    1.000
    O2       O        0.45560    0.36100    0.83210    1.000
    C15      C        0.33440    0.34170    0.18920    1.000
    H7       H        0.36650    0.32690    0.15440    1.000
    H8       H        0.31220    0.30630    0.23930    1.000
    H9       H        0.36650    0.39520    0.21050    1.000
    C16      C        0.20810    0.19190    0.94500    1.000
    H10      H        0.19020    0.13630    0.95050    1.000
    H11      H        0.17550    0.20510    0.98100    1.000
    H12      H        0.20420    0.20390    0.88300    1.000
    C17      C        0.37300    0.44490    0.69040    1.000
    H13      H        0.39590    0.46880    0.63350    1.000
    H14      H        0.37570    0.39700    0.69720    1.000
    H15      H        0.31910    0.43260    0.69300    1.000
    C18      C        0.48940    0.64540    0.93570    1.000
    H16      H        0.51000    0.70170    0.93110    1.000
    H17      H        0.50410    0.63340    0.99260    1.000
    H18      H        0.51090    0.62840    0.88830    1.000
    C19      C        0.31970    0.45560    0.00730    1.000
    C20      C        0.29090    0.37670    0.02220    1.000
    C21      C        0.27310    0.32610    0.95160    1.000
    C22      C        0.28410    0.35430    0.86620    1.000
    C23      C        0.31280    0.43320    0.85120    1.000
    C24      C        0.33070    0.48380    0.92180    1.000
    C25      C        0.26270    0.30000    0.78400    1.000
    O3       O        0.31860    0.28900    0.76500    1.000
    O4       O        0.20210    0.27680    0.73780    1.000
    O5       O        0.54000    0.63900    0.15000    1.000
    H19      H        0.52700    0.59800    0.12000    1.000
    H20      H        0.58800    0.66300    0.15200    1.000
    S5       S        0.35880    0.58410    0.90490    1.000
    C26      C        0.31760    0.22540    0.01600    1.000
    H21      H        0.30520    0.17190    0.02820    1.000
    H22      H        0.36270    0.25050    0.97700    1.000
    H23      H        0.32970    0.25440    0.07170    1.000
    S6       S        0.23710    0.22450    0.96620    1.000
    S7       S        0.27640    0.34400    0.13900    1.000
    S8       S        0.32250    0.47000    0.73580    1.000
    C27      C        0.37300    0.38100    0.17080    1.000
    H24      H        0.40690    0.40180    0.11930    1.000
    H25      H        0.37930    0.33940    0.19720    1.000
    H26      H        0.38720    0.42270    0.21390    1.000
    C28      C        0.42020    0.49900    0.71800    1.000
    H27      H        0.43530    0.52070    0.65880    1.000
    H28      H        0.45240    0.53930    0.76140    1.000
    H29      H        0.42790    0.45440    0.72470    1.000
    C29      C        0.46020    0.63090    0.91400    1.000
    H30      H        0.48220    0.68710    0.90580    1.000
    H31      H        0.47430    0.62110    0.97240    1.000
    H32      H        0.48090    0.61090    0.86910    1.000
    Eu1      Eu       0.44228    0.66051    0.21252    1.000
    O6       O        0.48240    0.62230    0.33900    1.000
    O7       O        0.42450    0.63140    0.45900    1.000
    O8       O        0.32570    0.58340    0.30110    1.000
    H33      H        0.32260    0.53450    0.32350    1.000
    O9       O        0.34640    0.68460    0.57500    1.000
    H34      H        0.36920    0.67070    0.61150    1.000
    H35      H        0.32770    0.70730    0.60440    1.000
    O10      O        0.25650    0.50480    0.09660    1.000
    O11      O        0.37920    0.54360    0.12920    1.000
    S9       S        0.34209    0.43902    0.39451    1.000
    S10      S        0.61332    0.68241    0.51310    1.000
    C30      C        0.39350    0.85490    0.41660    1.000
    C31      C        0.52850    0.95820    0.45480    1.000
    C32      C        0.44900    0.93000    0.46220    1.000
    C33      C        0.41960    0.97080    0.50630    1.000
    C34      C        0.57190    0.84710    0.48090    1.000
    H36      H        0.59260    0.81550    0.45630    1.000
    H37      H        0.52110    0.81300    0.50800    1.000
    H38      H        0.60790    0.88240    0.52550    1.000
    C35      C        0.29490    0.87810    0.61080    1.000
    H39      H        0.23830    0.84390    0.61500    1.000
    H40      H        0.31320    0.91410    0.66070    1.000
    H41      H        0.32030    0.84660    0.61160    1.000
    C36      C        0.49320    0.81240    0.08540    1.000
    C37      C        0.54000    0.86680    0.01420    1.000
    C38      C        0.61690    0.92460    0.02720    1.000
    C39      C        0.65590    0.98040    0.96260    1.000
    C40      C        0.61790    0.97830    0.88500    1.000
    C41      C        0.54100    0.92040    0.87200    1.000
    C42      C        0.50200    0.86470    0.93660    1.000
    S11      S        0.66430    0.92210    0.12260    1.000
    S12      S        0.75310    0.05920    0.97950    1.000
    S13      S        0.49080    0.91670    0.77420    1.000
    S14      S        0.40380    0.79060    0.92680    1.000
    C43      C        0.65880    0.04670    0.82330    1.000
    O12      O        0.70410    0.04830    0.76640    1.000
    O13      O        0.63900    0.09460    0.83210    1.000
    C44      C        0.65830    0.99270    0.18920    1.000
    H42      H        0.67310    0.03960    0.15440    1.000
    H43      H        0.69370    0.00590    0.23930    1.000
    H44      H        0.60480    0.97130    0.21050    1.000
    C45      C        0.80810    0.01620    0.94500    1.000
    H45      H        0.86370    0.05390    0.95050    1.000
    H46      H        0.79490    0.97040    0.98100    1.000
    H47      H        0.79610    0.00030    0.88300    1.000
    C46      C        0.55510    0.92810    0.69040    1.000
    H48      H        0.53120    0.92710    0.63350    1.000
    H49      H        0.60300    0.97870    0.69720    1.000
    H50      H        0.56740    0.88650    0.69300    1.000
    C47      C        0.35460    0.84400    0.93570    1.000
    H51      H        0.29830    0.80830    0.93110    1.000
    H52      H        0.36660    0.87070    0.99260    1.000
    H53      H        0.37160    0.88250    0.88830    1.000
    C48      C        0.54440    0.86410    0.00730    1.000
    C49      C        0.62330    0.91420    0.02220    1.000
    C50      C        0.67390    0.94700    0.95160    1.000
    C51      C        0.64570    0.92980    0.86620    1.000
    C52      C        0.56680    0.87960    0.85120    1.000
    C53      C        0.51620    0.84690    0.92180    1.000
    C54      C        0.70000    0.96270    0.78400    1.000
    O14      O        0.71100    0.02960    0.76500    1.000
    O15      O        0.72320    0.92530    0.73780    1.000
    O16      O        0.36100    0.90100    0.15000    1.000
    H54      H        0.40200    0.92900    0.12000    1.000
    H55      H        0.33700    0.92500    0.15200    1.000
    S15      S        0.41590    0.77470    0.90490    1.000
    C55      C        0.77460    0.09220    0.01600    1.000
    H56      H        0.82810    0.13330    0.02820    1.000
    H57      H        0.74950    0.11220    0.97700    1.000
    H58      H        0.74560    0.07530    0.07170    1.000
    S16      S        0.77550    0.01260    0.96620    1.000
    S17      S        0.65600    0.93240    0.13900    1.000
    S18      S        0.53000    0.85250    0.73580    1.000
    C56      C        0.61900    0.99200    0.17080    1.000
    H59      H        0.59820    0.00510    0.11930    1.000
    H60      H        0.66060    0.03990    0.19720    1.000
    H61      H        0.57730    0.96450    0.21390    1.000
    C57      C        0.50100    0.92120    0.71800    1.000
    H62      H        0.47930    0.91460    0.65880    1.000
    H63      H        0.46070    0.91310    0.76140    1.000
    H64      H        0.54560    0.97350    0.72470    1.000
    C58      C        0.36910    0.82930    0.91400    1.000
    H65      H        0.31290    0.79510    0.90580    1.000
    H66      H        0.37890    0.85320    0.97240    1.000
    H67      H        0.38910    0.87000    0.86910    1.000
    Eu2      Eu       0.33949    0.78177    0.21252    1.000
    O17      O        0.37770    0.86010    0.33900    1.000
    O18      O        0.36860    0.79310    0.45900    1.000
    O19      O        0.41660    0.74230    0.30110    1.000
    H68      H        0.46550    0.78810    0.32350    1.000
    O20      O        0.31540    0.66180    0.57500    1.000
    H69      H        0.32930    0.69850    0.61150    1.000
    H70      H        0.29270    0.62040    0.60440    1.000
    O21      O        0.49520    0.75170    0.09660    1.000
    O22      O        0.45640    0.83560    0.12920    1.000
    S19      S        0.56098    0.90307    0.39451    1.000
    S20      S        0.31759    0.93091    0.51310    1.000
    C59      C        0.14510    0.53860    0.41660    1.000
    C60      C        0.04180    0.57030    0.45480    1.000
    C61      C        0.07000    0.51900    0.46220    1.000
    C62      C        0.02920    0.44880    0.50630    1.000
    C63      C        0.15290    0.72480    0.48090    1.000
    H71      H        0.18450    0.77710    0.45630    1.000
    H72      H        0.18700    0.70810    0.50800    1.000
    H73      H        0.11760    0.72550    0.52550    1.000
    C64      C        0.12190    0.41680    0.61080    1.000
    H74      H        0.15610    0.39440    0.61500    1.000
    H75      H        0.08590    0.39910    0.66070    1.000
    H76      H        0.15340    0.47370    0.61160    1.000
    C65      C        0.18760    0.68080    0.08540    1.000
    C66      C        0.13320    0.67320    0.01420    1.000
    C67      C        0.07540    0.69230    0.02720    1.000
    C68      C        0.01960    0.67550    0.96260    1.000
    C69      C        0.02170    0.63960    0.88500    1.000
    C70      C        0.07960    0.62060    0.87200    1.000
    C71      C        0.13530    0.63730    0.93660    1.000
    S21      S        0.07790    0.74220    0.12260    1.000
    S22      S        0.94080    0.69390    0.97950    1.000
    S23      S        0.08330    0.57410    0.77420    1.000
    S24      S        0.20940    0.61320    0.92680    1.000
    C72      C        0.95330    0.61210    0.82330    1.000
    O23      O        0.95170    0.65580    0.76640    1.000
    O24      O        0.90540    0.54440    0.83210    1.000
    C73      C        0.00730    0.66560    0.18920    1.000
    H77      H        0.96040    0.63350    0.15440    1.000
    H78      H        0.99410    0.68780    0.23930    1.000
    H79      H        0.02870    0.63350    0.21050    1.000
    C74      C        0.98380    0.79190    0.94500    1.000
    H80      H        0.94610    0.80980    0.95050    1.000
    H81      H        0.02960    0.82450    0.98100    1.000
    H82      H        0.99970    0.79580    0.88300    1.000
    C75      C        0.07190    0.62700    0.69040    1.000
    H83      H        0.07290    0.60410    0.63350    1.000
    H84      H        0.02130    0.62430    0.69720    1.000
    H85      H        0.11350    0.68090    0.69300    1.000
    C76      C        0.15600    0.51060    0.93570    1.000
    H86      H        0.19170    0.49000    0.93110    1.000
    H87      H        0.12930    0.49590    0.99260    1.000
    H88      H        0.11750    0.48910    0.88830    1.000
    C77      C        0.13590    0.68030    0.00730    1.000
    C78      C        0.08580    0.70910    0.02220    1.000
    C79      C        0.05300    0.72690    0.95160    1.000
    C80      C        0.07020    0.71590    0.86620    1.000
    C81      C        0.12040    0.68720    0.85120    1.000
    C82      C        0.15310    0.66930    0.92180    1.000
    C83      C        0.03730    0.73730    0.78400    1.000
    O25      O        0.97040    0.68140    0.76500    1.000
    O26      O        0.07470    0.79790    0.73780    1.000
    O27      O        0.09900    0.46000    0.15000    1.000
    H89      H        0.07100    0.47300    0.12000    1.000
    H90      H        0.07500    0.41200    0.15200    1.000
    S25      S        0.22530    0.64120    0.90490    1.000
    C84      C        0.90780    0.68240    0.01600    1.000
    H91      H        0.86670    0.69480    0.02820    1.000
    H92      H        0.88780    0.63730    0.97700    1.000
    H93      H        0.92470    0.67030    0.07170    1.000
    S26      S        0.98740    0.76290    0.96620    1.000
    S27      S        0.06760    0.72360    0.13900    1.000
    S28      S        0.14750    0.67750    0.73580    1.000
    C85      C        0.00800    0.62700    0.17080    1.000
    H94      H        0.99490    0.59310    0.11930    1.000
    H95      H        0.96010    0.62070    0.19720    1.000
    H96      H        0.03550    0.61280    0.21390    1.000
    C86      C        0.07880    0.57980    0.71800    1.000
    H97      H        0.08540    0.56470    0.65880    1.000
    H98      H        0.08690    0.54760    0.76140    1.000
    H99      H        0.02650    0.57210    0.72470    1.000
    C87      C        0.17070    0.53980    0.91400    1.000
    H100     H        0.20490    0.51780    0.90580    1.000
    H101     H        0.14680    0.52570    0.97240    1.000
    H102     H        0.13000    0.51910    0.86910    1.000
    Eu3      Eu       0.21823    0.55772    0.21252    1.000
    O28      O        0.13990    0.51760    0.33900    1.000
    O29      O        0.20690    0.57550    0.45900    1.000
    O30      O        0.25770    0.67430    0.30110    1.000
    H103     H        0.21190    0.67740    0.32350    1.000
    O31      O        0.33820    0.65360    0.57500    1.000
    H104     H        0.30150    0.63080    0.61150    1.000
    H105     H        0.37960    0.67230    0.60440    1.000
    O32      O        0.24830    0.74350    0.09660    1.000
    O33      O        0.16440    0.62080    0.12920    1.000
    S29      S        0.09693    0.65791    0.39451    1.000
    S30      S        0.06909    0.38668    0.51310    1.000
    C88      C        0.53860    0.39350    0.58340    1.000
    C89      C        0.57030    0.52850    0.54520    1.000
    C90      C        0.51900    0.44900    0.53780    1.000
    C91      C        0.44880    0.41960    0.49370    1.000
    C92      C        0.72480    0.57190    0.51910    1.000
    H106     H        0.77710    0.59260    0.54370    1.000
    H107     H        0.70810    0.52110    0.49200    1.000
    H108     H        0.72550    0.60790    0.47450    1.000
    C93      C        0.41680    0.29490    0.38920    1.000
    H109     H        0.39440    0.23830    0.38500    1.000
    H110     H        0.39910    0.31320    0.33930    1.000
    H111     H        0.47370    0.32030    0.38840    1.000
    C94      C        0.68080    0.49320    0.91460    1.000
    C95      C        0.67320    0.54000    0.98580    1.000
    C96      C        0.69230    0.61690    0.97280    1.000
    C97      C        0.67550    0.65590    0.03740    1.000
    C98      C        0.63960    0.61790    0.11500    1.000
    C99      C        0.62060    0.54100    0.12800    1.000
    C100     C        0.63730    0.50200    0.06340    1.000
    S31      S        0.74220    0.66430    0.87740    1.000
    S32      S        0.69390    0.75310    0.02050    1.000
    S33      S        0.57410    0.49080    0.22580    1.000
    S34      S        0.61320    0.40380    0.07320    1.000
    C101     C        0.61210    0.65880    0.17670    1.000
    O34      O        0.65580    0.70410    0.23360    1.000
    O35      O        0.54440    0.63900    0.16790    1.000
    C102     C        0.66560    0.65830    0.81080    1.000
    H112     H        0.63350    0.67310    0.84560    1.000
    H113     H        0.68780    0.69370    0.76070    1.000
    H114     H        0.63350    0.60480    0.78950    1.000
    C103     C        0.79190    0.80810    0.05500    1.000
    H115     H        0.80980    0.86370    0.04950    1.000
    H116     H        0.82450    0.79490    0.01900    1.000
    H117     H        0.79580    0.79610    0.11700    1.000
    C104     C        0.62700    0.55510    0.30960    1.000
    H118     H        0.60410    0.53120    0.36650    1.000
    H119     H        0.62430    0.60300    0.30280    1.000
    H120     H        0.68090    0.56740    0.30700    1.000
    C105     C        0.51060    0.35460    0.06430    1.000
    H121     H        0.49000    0.29830    0.06890    1.000
    H122     H        0.49590    0.36660    0.00740    1.000
    H123     H        0.48910    0.37160    0.11170    1.000
    C106     C        0.68030    0.54440    0.99270    1.000
    C107     C        0.70910    0.62330    0.97780    1.000
    C108     C        0.72690    0.67390    0.04840    1.000
    C109     C        0.71590    0.64570    0.13380    1.000
    C110     C        0.68720    0.56680    0.14880    1.000
    C111     C        0.66930    0.51620    0.07820    1.000
    C112     C        0.73730    0.70000    0.21600    1.000
    O36      O        0.68140    0.71100    0.23500    1.000
    O37      O        0.79790    0.72320    0.26220    1.000
    O38      O        0.46000    0.36100    0.85000    1.000
    H124     H        0.47300    0.40200    0.88000    1.000
    H125     H        0.41200    0.33700    0.84800    1.000
    S35      S        0.64120    0.41590    0.09510    1.000
    C113     C        0.68240    0.77460    0.98400    1.000
    H126     H        0.69480    0.82810    0.97180    1.000
    H127     H        0.63730    0.74950    0.02300    1.000
    H128     H        0.67030    0.74560    0.92830    1.000
    S36      S        0.76290    0.77550    0.03380    1.000
    S37      S        0.72360    0.65600    0.86100    1.000
    S38      S        0.67750    0.53000    0.26420    1.000
    C114     C        0.62700    0.61900    0.82920    1.000
    H129     H        0.59310    0.59820    0.88070    1.000
    H130     H        0.62070    0.66060    0.80280    1.000
    H131     H        0.61280    0.57730    0.78610    1.000
    C115     C        0.57980    0.50100    0.28200    1.000
    H132     H        0.56470    0.47930    0.34120    1.000
    H133     H        0.54760    0.46070    0.23860    1.000
    H134     H        0.57210    0.54560    0.27530    1.000
    C116     C        0.53980    0.36910    0.08600    1.000
    H135     H        0.51780    0.31290    0.09420    1.000
    H136     H        0.52570    0.37890    0.02760    1.000
    H137     H        0.51910    0.38910    0.13090    1.000
    Eu4      Eu       0.55772    0.33949    0.78748    1.000
    O39      O        0.51760    0.37770    0.66100    1.000
    O40      O        0.57550    0.36860    0.54100    1.000
    O41      O        0.67430    0.41660    0.69890    1.000
    H138     H        0.67740    0.46550    0.67650    1.000
    O42      O        0.65360    0.31540    0.42500    1.000
    H139     H        0.63080    0.32930    0.38850    1.000
    H140     H        0.67230    0.29270    0.39560    1.000
    O43      O        0.74350    0.49520    0.90340    1.000
    O44      O        0.62080    0.45640    0.87080    1.000
    S39      S        0.65791    0.56098    0.60549    1.000
    S40      S        0.38668    0.31759    0.48690    1.000
    C117     C        0.60650    0.14510    0.58340    1.000
    C118     C        0.47150    0.04180    0.54520    1.000
    C119     C        0.55100    0.07000    0.53780    1.000
    C120     C        0.58040    0.02920    0.49370    1.000
    C121     C        0.42810    0.15290    0.51910    1.000
    H141     H        0.40740    0.18450    0.54370    1.000
    H142     H        0.47890    0.18700    0.49200    1.000
    H143     H        0.39210    0.11760    0.47450    1.000
    C122     C        0.70510    0.12190    0.38920    1.000
    H144     H        0.76170    0.15610    0.38500    1.000
    H145     H        0.68680    0.08590    0.33930    1.000
    H146     H        0.67970    0.15340    0.38840    1.000
    C123     C        0.50680    0.18760    0.91460    1.000
    C124     C        0.46000    0.13320    0.98580    1.000
    C125     C        0.38310    0.07540    0.97280    1.000
    C126     C        0.34410    0.01960    0.03740    1.000
    C127     C        0.38210    0.02170    0.11500    1.000
    C128     C        0.45900    0.07960    0.12800    1.000
    C129     C        0.49800    0.13530    0.06340    1.000
    S41      S        0.33570    0.07790    0.87740    1.000
    S42      S        0.24690    0.94080    0.02050    1.000
    S43      S        0.50920    0.08330    0.22580    1.000
    S44      S        0.59620    0.20940    0.07320    1.000
    C130     C        0.34120    0.95330    0.17670    1.000
    O45      O        0.29590    0.95170    0.23360    1.000
    O46      O        0.36100    0.90540    0.16790    1.000
    C131     C        0.34170    0.00730    0.81080    1.000
    H147     H        0.32690    0.96040    0.84560    1.000
    H148     H        0.30630    0.99410    0.76070    1.000
    H149     H        0.39520    0.02870    0.78950    1.000
    C132     C        0.19190    0.98380    0.05500    1.000
    H150     H        0.13630    0.94610    0.04950    1.000
    H151     H        0.20510    0.02960    0.01900    1.000
    H152     H        0.20390    0.99970    0.11700    1.000
    C133     C        0.44490    0.07190    0.30960    1.000
    H153     H        0.46880    0.07290    0.36650    1.000
    H154     H        0.39700    0.02130    0.30280    1.000
    H155     H        0.43260    0.11350    0.30700    1.000
    C134     C        0.64540    0.15600    0.06430    1.000
    H156     H        0.70170    0.19170    0.06890    1.000
    H157     H        0.63340    0.12930    0.00740    1.000
    H158     H        0.62840    0.11750    0.11170    1.000
    C135     C        0.45560    0.13590    0.99270    1.000
    C136     C        0.37670    0.08580    0.97780    1.000
    C137     C        0.32610    0.05300    0.04840    1.000
    C138     C        0.35430    0.07020    0.13380    1.000
    C139     C        0.43320    0.12040    0.14880    1.000
    C140     C        0.48380    0.15310    0.07820    1.000
    C141     C        0.30000    0.03730    0.21600    1.000
    O47      O        0.28900    0.97040    0.23500    1.000
    O48      O        0.27680    0.07470    0.26220    1.000
    O49      O        0.63900    0.09900    0.85000    1.000
    H159     H        0.59800    0.07100    0.88000    1.000
    H160     H        0.66300    0.07500    0.84800    1.000
    S45      S        0.58410    0.22530    0.09510    1.000
    C142     C        0.22540    0.90780    0.98400    1.000
    H161     H        0.17190    0.86670    0.97180    1.000
    H162     H        0.25050    0.88780    0.02300    1.000
    H163     H        0.25440    0.92470    0.92830    1.000
    S46      S        0.22450    0.98740    0.03380    1.000
    S47      S        0.34400    0.06760    0.86100    1.000
    S48      S        0.47000    0.14750    0.26420    1.000
    C143     C        0.38100    0.00800    0.82920    1.000
    H164     H        0.40180    0.99490    0.88070    1.000
    H165     H        0.33940    0.96010    0.80280    1.000
    H166     H        0.42270    0.03550    0.78610    1.000
    C144     C        0.49900    0.07880    0.28200    1.000
    H167     H        0.52070    0.08540    0.34120    1.000
    H168     H        0.53930    0.08690    0.23860    1.000
    H169     H        0.45440    0.02650    0.27530    1.000
    C145     C        0.63090    0.17070    0.08600    1.000
    H170     H        0.68710    0.20490    0.09420    1.000
    H171     H        0.62110    0.14680    0.02760    1.000
    H172     H        0.61090    0.13000    0.13090    1.000
    Eu5      Eu       0.66051    0.21823    0.78748    1.000
    O50      O        0.62230    0.13990    0.66100    1.000
    O51      O        0.63140    0.20690    0.54100    1.000
    O52      O        0.58340    0.25770    0.69890    1.000
    H173     H        0.53450    0.21190    0.67650    1.000
    O53      O        0.68460    0.33820    0.42500    1.000
    H174     H        0.67070    0.30150    0.38850    1.000
    H175     H        0.70730    0.37960    0.39560    1.000
    O54      O        0.50480    0.24830    0.90340    1.000
    O55      O        0.54360    0.16440    0.87080    1.000
    S49      S        0.43902    0.09693    0.60549    1.000
    S50      S        0.68241    0.06909    0.48690    1.000
    C146     C        0.85490    0.46140    0.58340    1.000
    C147     C        0.95820    0.42970    0.54520    1.000
    C148     C        0.93000    0.48100    0.53780    1.000
    C149     C        0.97080    0.55120    0.49370    1.000
    C150     C        0.84710    0.27520    0.51910    1.000
    H176     H        0.81550    0.22290    0.54370    1.000
    H177     H        0.81300    0.29190    0.49200    1.000
    H178     H        0.88240    0.27450    0.47450    1.000
    C151     C        0.87810    0.58320    0.38920    1.000
    H179     H        0.84390    0.60560    0.38500    1.000
    H180     H        0.91410    0.60090    0.33930    1.000
    H181     H        0.84660    0.52630    0.38840    1.000
    C152     C        0.81240    0.31920    0.91460    1.000
    C153     C        0.86680    0.32680    0.98580    1.000
    C154     C        0.92460    0.30770    0.97280    1.000
    C155     C        0.98040    0.32450    0.03740    1.000
    C156     C        0.97830    0.36040    0.11500    1.000
    C157     C        0.92040    0.37940    0.12800    1.000
    C158     C        0.86470    0.36270    0.06340    1.000
    S51      S        0.92210    0.25780    0.87740    1.000
    S52      S        0.05920    0.30610    0.02050    1.000
    S53      S        0.91670    0.42590    0.22580    1.000
    S54      S        0.79060    0.38680    0.07320    1.000
    C159     C        0.04670    0.38790    0.17670    1.000
    O56      O        0.04830    0.34420    0.23360    1.000
    O57      O        0.09460    0.45560    0.16790    1.000
    C160     C        0.99270    0.33440    0.81080    1.000
    H182     H        0.03960    0.36650    0.84560    1.000
    H183     H        0.00590    0.31220    0.76070    1.000
    H184     H        0.97130    0.36650    0.78950    1.000
    C161     C        0.01620    0.20810    0.05500    1.000
    H185     H        0.05390    0.19020    0.04950    1.000
    H186     H        0.97040    0.17550    0.01900    1.000
    H187     H        0.00030    0.20420    0.11700    1.000
    C162     C        0.92810    0.37300    0.30960    1.000
    H188     H        0.92710    0.39590    0.36650    1.000
    H189     H        0.97870    0.37570    0.30280    1.000
    H190     H        0.88650    0.31910    0.30700    1.000
    C163     C        0.84400    0.48940    0.06430    1.000
    H191     H        0.80830    0.51000    0.06890    1.000
    H192     H        0.87070    0.50410    0.00740    1.000
    H193     H        0.88250    0.51090    0.11170    1.000
    C164     C        0.86410    0.31970    0.99270    1.000
    C165     C        0.91420    0.29090    0.97780    1.000
    C166     C        0.94700    0.27310    0.04840    1.000
    C167     C        0.92980    0.28410    0.13380    1.000
    C168     C        0.87960    0.31280    0.14880    1.000
    C169     C        0.84690    0.33070    0.07820    1.000
    C170     C        0.96270    0.26270    0.21600    1.000
    O58      O        0.02960    0.31860    0.23500    1.000
    O59      O        0.92530    0.20210    0.26220    1.000
    O60      O        0.90100    0.54000    0.85000    1.000
    H194     H        0.92900    0.52700    0.88000    1.000
    H195     H        0.92500    0.58800    0.84800    1.000
    S55      S        0.77470    0.35880    0.09510    1.000
    C171     C        0.09220    0.31760    0.98400    1.000
    H196     H        0.13330    0.30520    0.97180    1.000
    H197     H        0.11220    0.36270    0.02300    1.000
    H198     H        0.07530    0.32970    0.92830    1.000
    S56      S        0.01260    0.23710    0.03380    1.000
    S57      S        0.93240    0.27640    0.86100    1.000
    S58      S        0.85250    0.32250    0.26420    1.000
    C172     C        0.99200    0.37300    0.82920    1.000
    H199     H        0.00510    0.40690    0.88070    1.000
    H200     H        0.03990    0.37930    0.80280    1.000
    H201     H        0.96450    0.38720    0.78610    1.000
    C173     C        0.92120    0.42020    0.28200    1.000
    H202     H        0.91460    0.43530    0.34120    1.000
    H203     H        0.91310    0.45240    0.23860    1.000
    H204     H        0.97350    0.42790    0.27530    1.000
    C174     C        0.82930    0.46020    0.08600    1.000
    H205     H        0.79510    0.48220    0.09420    1.000
    H206     H        0.85320    0.47430    0.02760    1.000
    H207     H        0.87000    0.48090    0.13090    1.000
    Eu6      Eu       0.78177    0.44228    0.78748    1.000
    O61      O        0.86010    0.48240    0.66100    1.000
    O62      O        0.79310    0.42450    0.54100    1.000
    O63      O        0.74230    0.32570    0.69890    1.000
    H208     H        0.78810    0.32260    0.67650    1.000
    O64      O        0.66180    0.34640    0.42500    1.000
    H209     H        0.69850    0.36920    0.38850    1.000
    H210     H        0.62040    0.32770    0.39560    1.000
    O65      O        0.75170    0.25650    0.90340    1.000
    O66      O        0.83560    0.37920    0.87080    1.000
    S59      S        0.90307    0.34209    0.60549    1.000
    S60      S        0.93091    0.61332    0.48690    1.000
    Eu7      Eu       0.33333    0.66667    0.41665    1.000
    O67      O        0.33333    0.66667    0.15200    1.000
    H211     H        0.33333    0.66667    0.08630    1.000
    Eu8      Eu       0.66667    0.33333    0.58335    1.000
    O68      O        0.66667    0.33333    0.84800    1.000
    H212     H        0.66667    0.33333    0.91370    1.000
