# CIF file generated by openbabel 3.1.0, see https://openbabel.org
data_I
_chemical_name_common 'image0'
_cell_length_a 11.002
_cell_length_b 22.1547
_cell_length_c 16.9957
_cell_angle_alpha 90
_cell_angle_beta 100.697
_cell_angle_gamma 90
_space_group_name_H-M_alt 'P 1'
_space_group_name_Hall 'P 1'
loop_
    _symmetry_equiv_pos_as_xyz
    x,y,z
loop_
    _atom_site_label
    _atom_site_type_symbol
    _atom_site_fract_x
    _atom_site_fract_y
    _atom_site_fract_z
    _atom_site_occupancy
    Co1      Co       0.14436    0.55740    0.53059    1.000
    O1       O        0.00072    0.59090    0.45246    1.000
    O2       O        0.21400    0.85308    0.06017    1.000
    O3       O        0.32640    0.92857    0.11576    1.000
    O4       O        0.83740    0.53315    0.46079    1.000
    N1       N        0.24420    0.55154    0.43341    1.000
    N2       N        0.05290    0.55536    0.63222    1.000
    N3       N        0.44110    0.56201    0.18218    1.000
    H1       H        0.38280    0.58690    0.16360    1.000
    N4       N        0.56030    0.49748    0.25744    1.000
    N5       N        0.61180    0.50443    0.19130    1.000
    C1       C        0.39990    0.82887    0.14920    1.000
    N6       N        0.83450    0.49663    0.93990    1.000
    N7       N        0.78110    0.56514    0.84844    1.000
    H2       H        0.74420    0.59450    0.82060    1.000
    C2       C        0.30920    0.87251    0.10670    1.000
    C3       C        0.41100    0.50414    0.38300    1.000
    H3       H        0.47640    0.47690    0.39110    1.000
    C4       C        0.09970    0.51942    0.69390    1.000
    H4       H        0.17340    0.49930    0.69210    1.000
    N8       N        0.91320    0.48914    0.88730    1.000
    C5       C        0.45830    0.53298    0.25050    1.000
    C6       C        0.38350    0.53810    0.31310    1.000
    C7       C        0.94810    0.58442    0.63740    1.000
    H5       H        0.91350    0.60970    0.59550    1.000
    C8       C        0.88870    0.57878    0.70150    1.000
    H6       H        0.81660    0.60030    0.70290    1.000
    C9       C        0.28510    0.57812    0.30490    1.000
    H7       H        0.26390    0.60100    0.25850    1.000
    C10      C        0.53600    0.54376    0.14770    1.000
    N9       N        0.47990    0.62470    0.95250    1.000
    C11      C        0.33760    0.51239    0.44030    1.000
    H8       H        0.35470    0.48910    0.48650    1.000
    C12      C        0.64840    0.54230    0.03280    1.000
    H9       H        0.70350    0.51380    0.05910    1.000
    C13      C        0.21870    0.58384    0.36600    1.000
    H10      H        0.15370    0.61130    0.35990    1.000
    C14      C        0.77810    0.70689    0.29560    1.000
    H11      H        0.81240    0.73680    0.26820    1.000
    C15      C        0.88770    0.57861    0.43670    1.000
    C16      C        0.80670    0.62226    0.38380    1.000
    C17      C        0.65030    0.70263    0.28640    1.000
    C18      C        0.56600    0.74642    0.23670    1.000
    C19      C        0.93760    0.54066    0.76420    1.000
    C20      C        0.85530    0.66780    0.34430    1.000
    H12      H        0.94060    0.67220    0.35050    1.000
    C21      C        0.59600    0.80676    0.23570    1.000
    H13      H        0.67140    0.82020    0.26440    1.000
    C22      C        0.04570    0.51049    0.75940    1.000
    H14      H        0.08140    0.48440    0.80010    1.000
    C23      C        0.65980    0.56230    0.95770    1.000
    C24      C        0.60380    0.65760    0.32620    1.000
    H15      H        0.51840    0.65400    0.32100    1.000
    C25      C        0.75650    0.54220    0.91570    1.000
    C26      C        0.87590    0.53256    0.83380    1.000
    C27      C        0.51410    0.84783    0.19190    1.000
    H16      H        0.53600    0.88840    0.19110    1.000
    C28      C        0.55550    0.56430    0.06880    1.000
    C29      C        0.37230    0.76741    0.14910    1.000
    H17      H        0.29790    0.75360    0.11940    1.000
    C30      C        0.67870    0.61710    0.37410    1.000
    H18      H        0.64380    0.58640    0.39980    1.000
    C31      C        0.57210    0.60280    0.92130    1.000
    H19      H        0.57830    0.61580    0.87020    1.000
    C32      C        0.45280    0.72704    0.19210    1.000
    H20      H        0.43200    0.68630    0.19160    1.000
    C33      C        0.47410    0.60440    0.02610    1.000
    H21      H        0.41000    0.61850    0.04990    1.000
    Co2      Co       0.85564    0.05740    0.96941    1.000
    O5       O        0.99928    0.09090    0.04754    1.000
    O6       O        0.78600    0.35308    0.43983    1.000
    O7       O        0.67360    0.42857    0.38424    1.000
    O8       O        0.16260    0.03315    0.03921    1.000
    N10      N        0.75580    0.05154    0.06659    1.000
    N11      N        0.94710    0.05536    0.86778    1.000
    N12      N        0.55890    0.06201    0.31782    1.000
    H22      H        0.61720    0.08690    0.33640    1.000
    N13      N        0.43970    0.99748    0.24256    1.000
    N14      N        0.38820    0.00443    0.30870    1.000
    C34      C        0.60010    0.32887    0.35080    1.000
    N15      N        0.16550    0.99663    0.56010    1.000
    N16      N        0.21890    0.06514    0.65156    1.000
    H23      H        0.25580    0.09450    0.67940    1.000
    C35      C        0.69080    0.37251    0.39330    1.000
    C36      C        0.58900    0.00414    0.11700    1.000
    H24      H        0.52360    0.97690    0.10890    1.000
    C37      C        0.90030    0.01942    0.80610    1.000
    H25      H        0.82660    0.99930    0.80790    1.000
    N17      N        0.08680    0.98914    0.61270    1.000
    C38      C        0.54170    0.03298    0.24950    1.000
    C39      C        0.61650    0.03810    0.18690    1.000
    C40      C        0.05190    0.08442    0.86260    1.000
    H26      H        0.08650    0.10970    0.90450    1.000
    C41      C        0.11130    0.07878    0.79850    1.000
    H27      H        0.18340    0.10030    0.79710    1.000
    C42      C        0.71490    0.07812    0.19510    1.000
    H28      H        0.73610    0.10100    0.24150    1.000
    C43      C        0.46400    0.04376    0.35230    1.000
    N18      N        0.52010    0.12470    0.54750    1.000
    C44      C        0.66240    0.01239    0.05970    1.000
    H29      H        0.64530    0.98910    0.01350    1.000
    C45      C        0.35160    0.04230    0.46720    1.000
    H30      H        0.29650    0.01380    0.44090    1.000
    C46      C        0.78130    0.08384    0.13400    1.000
    H31      H        0.84630    0.11130    0.14010    1.000
    C47      C        0.22190    0.20689    0.20440    1.000
    H32      H        0.18760    0.23680    0.23180    1.000
    C48      C        0.11230    0.07861    0.06330    1.000
    C49      C        0.19330    0.12226    0.11620    1.000
    C50      C        0.34970    0.20263    0.21360    1.000
    C51      C        0.43400    0.24642    0.26330    1.000
    C52      C        0.06240    0.04066    0.73580    1.000
    C53      C        0.14470    0.16780    0.15570    1.000
    H33      H        0.05940    0.17220    0.14950    1.000
    C54      C        0.40400    0.30676    0.26430    1.000
    H34      H        0.32860    0.32020    0.23560    1.000
    C55      C        0.95430    0.01049    0.74060    1.000
    H35      H        0.91860    0.98440    0.69990    1.000
    C56      C        0.34020    0.06230    0.54230    1.000
    C57      C        0.39620    0.15760    0.17380    1.000
    H36      H        0.48160    0.15400    0.17900    1.000
    C58      C        0.24350    0.04220    0.58430    1.000
    C59      C        0.12410    0.03256    0.66620    1.000
    C60      C        0.48590    0.34783    0.30810    1.000
    H37      H        0.46400    0.38840    0.30890    1.000
    C61      C        0.44450    0.06430    0.43120    1.000
    C62      C        0.62770    0.26741    0.35090    1.000
    H38      H        0.70210    0.25360    0.38060    1.000
    C63      C        0.32130    0.11710    0.12590    1.000
    H39      H        0.35620    0.08640    0.10020    1.000
    C64      C        0.42790    0.10280    0.57870    1.000
    H40      H        0.42170    0.11580    0.62980    1.000
    C65      C        0.54720    0.22704    0.30790    1.000
    H41      H        0.56800    0.18630    0.30840    1.000
    C66      C        0.52590    0.10440    0.47390    1.000
    H42      H        0.59000    0.11850    0.45010    1.000
    Co3      Co       0.85564    0.44260    0.46941    1.000
    O9       O        0.99928    0.40910    0.54754    1.000
    O10      O        0.78600    0.14692    0.93983    1.000
    O11      O        0.67360    0.07143    0.88424    1.000
    O12      O        0.16260    0.46685    0.53921    1.000
    N19      N        0.75580    0.44846    0.56659    1.000
    N20      N        0.94710    0.44464    0.36778    1.000
    N21      N        0.55890    0.43799    0.81782    1.000
    H43      H        0.61720    0.41310    0.83640    1.000
    N22      N        0.43970    0.50252    0.74256    1.000
    N23      N        0.38820    0.49557    0.80870    1.000
    C67      C        0.60010    0.17113    0.85080    1.000
    N24      N        0.16550    0.50337    0.06010    1.000
    N25      N        0.21890    0.43486    0.15156    1.000
    H44      H        0.25580    0.40550    0.17940    1.000
    C68      C        0.69080    0.12749    0.89330    1.000
    C69      C        0.58900    0.49586    0.61700    1.000
    H45      H        0.52360    0.52310    0.60890    1.000
    C70      C        0.90030    0.48058    0.30610    1.000
    H46      H        0.82660    0.50070    0.30790    1.000
    N26      N        0.08680    0.51086    0.11270    1.000
    C71      C        0.54170    0.46702    0.74950    1.000
    C72      C        0.61650    0.46190    0.68690    1.000
    C73      C        0.05190    0.41558    0.36260    1.000
    H47      H        0.08650    0.39030    0.40450    1.000
    C74      C        0.11130    0.42122    0.29850    1.000
    H48      H        0.18340    0.39970    0.29710    1.000
    C75      C        0.71490    0.42188    0.69510    1.000
    H49      H        0.73610    0.39900    0.74150    1.000
    C76      C        0.46400    0.45624    0.85230    1.000
    N27      N        0.52010    0.37530    0.04750    1.000
    C77      C        0.66240    0.48761    0.55970    1.000
    H50      H        0.64530    0.51090    0.51350    1.000
    C78      C        0.35160    0.45770    0.96720    1.000
    H51      H        0.29650    0.48620    0.94090    1.000
    C79      C        0.78130    0.41616    0.63400    1.000
    H52      H        0.84630    0.38870    0.64010    1.000
    C80      C        0.22190    0.29311    0.70440    1.000
    H53      H        0.18760    0.26320    0.73180    1.000
    C81      C        0.11230    0.42139    0.56330    1.000
    C82      C        0.19330    0.37774    0.61620    1.000
    C83      C        0.34970    0.29737    0.71360    1.000
    C84      C        0.43400    0.25358    0.76330    1.000
    C85      C        0.06240    0.45934    0.23580    1.000
    C86      C        0.14470    0.33220    0.65570    1.000
    H54      H        0.05940    0.32780    0.64950    1.000
    C87      C        0.40400    0.19324    0.76430    1.000
    H55      H        0.32860    0.17980    0.73560    1.000
    C88      C        0.95430    0.48951    0.24060    1.000
    H56      H        0.91860    0.51560    0.19990    1.000
    C89      C        0.34020    0.43770    0.04230    1.000
    C90      C        0.39620    0.34240    0.67380    1.000
    H57      H        0.48160    0.34600    0.67900    1.000
    C91      C        0.24350    0.45780    0.08430    1.000
    C92      C        0.12410    0.46744    0.16620    1.000
    C93      C        0.48590    0.15217    0.80810    1.000
    H58      H        0.46400    0.11160    0.80890    1.000
    C94      C        0.44450    0.43570    0.93120    1.000
    C95      C        0.62770    0.23259    0.85090    1.000
    H59      H        0.70210    0.24640    0.88060    1.000
    C96      C        0.32130    0.38290    0.62590    1.000
    H60      H        0.35620    0.41360    0.60020    1.000
    C97      C        0.42790    0.39720    0.07870    1.000
    H61      H        0.42170    0.38420    0.12980    1.000
    C98      C        0.54720    0.27296    0.80790    1.000
    H62      H        0.56800    0.31370    0.80840    1.000
    C99      C        0.52590    0.39560    0.97390    1.000
    H63      H        0.59000    0.38150    0.95010    1.000
    Co4      Co       0.14436    0.94260    0.03059    1.000
    O13      O        0.00072    0.90910    0.95246    1.000
    O14      O        0.21400    0.64692    0.56017    1.000
    O15      O        0.32640    0.57143    0.61576    1.000
    O16      O        0.83740    0.96685    0.96079    1.000
    N28      N        0.24420    0.94846    0.93341    1.000
    N29      N        0.05290    0.94464    0.13222    1.000
    N30      N        0.44110    0.93799    0.68218    1.000
    H64      H        0.38280    0.91310    0.66360    1.000
    N31      N        0.56030    0.00252    0.75744    1.000
    N32      N        0.61180    0.99557    0.69130    1.000
    C100     C        0.39990    0.67113    0.64920    1.000
    N33      N        0.83450    0.00337    0.43990    1.000
    N34      N        0.78110    0.93486    0.34844    1.000
    H65      H        0.74420    0.90550    0.32060    1.000
    C101     C        0.30920    0.62749    0.60670    1.000
    C102     C        0.41100    0.99586    0.88300    1.000
    H66      H        0.47640    0.02310    0.89110    1.000
    C103     C        0.09970    0.98058    0.19390    1.000
    H67      H        0.17340    0.00070    0.19210    1.000
    N35      N        0.91320    0.01086    0.38730    1.000
    C104     C        0.45830    0.96702    0.75050    1.000
    C105     C        0.38350    0.96190    0.81310    1.000
    C106     C        0.94810    0.91558    0.13740    1.000
    H68      H        0.91350    0.89030    0.09550    1.000
    C107     C        0.88870    0.92122    0.20150    1.000
    H69      H        0.81660    0.89970    0.20290    1.000
    C108     C        0.28510    0.92188    0.80490    1.000
    H70      H        0.26390    0.89900    0.75850    1.000
    C109     C        0.53600    0.95624    0.64770    1.000
    N36      N        0.47990    0.87530    0.45250    1.000
    C110     C        0.33760    0.98761    0.94030    1.000
    H71      H        0.35470    0.01090    0.98650    1.000
    C111     C        0.64840    0.95770    0.53280    1.000
    H72      H        0.70350    0.98620    0.55910    1.000
    C112     C        0.21870    0.91616    0.86600    1.000
    H73      H        0.15370    0.88870    0.85990    1.000
    C113     C        0.77810    0.79311    0.79560    1.000
    H74      H        0.81240    0.76320    0.76820    1.000
    C114     C        0.88770    0.92139    0.93670    1.000
    C115     C        0.80670    0.87774    0.88380    1.000
    C116     C        0.65030    0.79737    0.78640    1.000
    C117     C        0.56600    0.75358    0.73670    1.000
    C118     C        0.93760    0.95934    0.26420    1.000
    C119     C        0.85530    0.83220    0.84430    1.000
    H75      H        0.94060    0.82780    0.85050    1.000
    C120     C        0.59600    0.69324    0.73570    1.000
    H76      H        0.67140    0.67980    0.76440    1.000
    C121     C        0.04570    0.98951    0.25940    1.000
    H77      H        0.08140    0.01560    0.30010    1.000
    C122     C        0.65980    0.93770    0.45770    1.000
    C123     C        0.60380    0.84240    0.82620    1.000
    H78      H        0.51840    0.84600    0.82100    1.000
    C124     C        0.75650    0.95780    0.41570    1.000
    C125     C        0.87590    0.96744    0.33380    1.000
    C126     C        0.51410    0.65217    0.69190    1.000
    H79      H        0.53600    0.61160    0.69110    1.000
    C127     C        0.55550    0.93570    0.56880    1.000
    C128     C        0.37230    0.73259    0.64910    1.000
    H80      H        0.29790    0.74640    0.61940    1.000
    C129     C        0.67870    0.88290    0.87410    1.000
    H81      H        0.64380    0.91360    0.89980    1.000
    C130     C        0.57210    0.89720    0.42130    1.000
    H82      H        0.57830    0.88420    0.37020    1.000
    C131     C        0.45280    0.77296    0.69210    1.000
    H83      H        0.43200    0.81370    0.69160    1.000
    C132     C        0.47410    0.89560    0.52610    1.000
    H84      H        0.41000    0.88150    0.54990    1.000
