# CIF file generated by openbabel 3.1.0, see https://openbabel.org
data_I
_chemical_name_common 'image0'
_cell_length_a 12.8432
_cell_length_b 19.5607
_cell_length_c 25.691
_cell_angle_alpha 79.224
_cell_angle_beta 78.864
_cell_angle_gamma 71.244
_space_group_name_H-M_alt 'P 1'
_space_group_name_Hall 'P 1'
loop_
    _symmetry_equiv_pos_as_xyz
    x,y,z
loop_
    _atom_site_label
    _atom_site_type_symbol
    _atom_site_fract_x
    _atom_site_fract_y
    _atom_site_fract_z
    _atom_site_occupancy
    Mn1      Mn       0.68964    0.37490    0.38288    1.000
    Mn2      Mn       0.74210    0.45115    0.26276    1.000
    Mn3      Mn       0.65876    0.31032    0.27985    1.000
    Mn4      Mn       0.50547    0.46495    0.24321    1.000
    Mn5      Mn       0.53006    0.52976    0.33825    1.000
    Mn6      Mn       0.44389    0.39025    0.35793    1.000
    Na1      Na       0.91400    0.28803    0.30370    1.000
    Na2      Na       0.44780    0.45384    0.46699    1.000
    Na3      Na       0.57840    0.62490    0.21315    1.000
    O1       O        0.58900    0.42620    0.30647    1.000
    C1       C        0.78110    0.52670    0.36460    1.000
    C2       C        0.68710    0.51790    0.41020    1.000
    H1       H        0.72040    0.48870    0.44200    1.000
    H2       H        0.64290    0.56670    0.42000    1.000
    O2       O        0.61350    0.48350    0.39691    1.000
    C3       C        0.73480    0.57450    0.31580    1.000
    H3       H        0.69110    0.62320    0.32580    1.000
    H4       H        0.79740    0.58080    0.28810    1.000
    O3       O        0.66430    0.54600    0.29297    1.000
    C4       C        0.85900    0.45230    0.34990    1.000
    H5       H        0.92220    0.46060    0.32330    1.000
    H6       H        0.88940    0.42290    0.38230    1.000
    O4       O        0.80600    0.41140    0.32828    1.000
    C5       C        0.85170    0.56700    0.38310    1.000
    H7       H        0.90050    0.58230    0.35140    1.000
    H8       H        0.80060    0.61170    0.39690    1.000
    C6       C        0.92370    0.52400    0.42570    1.000
    H9       H        0.87700    0.50780    0.45740    1.000
    H10      H        0.96150    0.55500    0.43550    1.000
    H11      H        0.97920    0.48150    0.41170    1.000
    C7       C        0.72440    0.38690    0.15120    1.000
    C8       C        0.62130    0.36020    0.16720    1.000
    H12      H        0.56560    0.38860    0.14350    1.000
    H13      H        0.64230    0.30850    0.16170    1.000
    O5       O        0.57100    0.36690    0.22251    1.000
    C9       C        0.81440    0.34390    0.18630    1.000
    H14      H        0.83650    0.29180    0.18170    1.000
    H15      H        0.88060    0.36130    0.17380    1.000
    O6       O        0.78030    0.35040    0.24246    1.000
    C10      C        0.69570    0.46910    0.15390    1.000
    H16      H        0.76380    0.48430    0.14120    1.000
    H17      H        0.64120    0.49610    0.12920    1.000
    O7       O        0.65130    0.48890    0.20581    1.000
    C11      C        0.77620    0.37080    0.09290    1.000
    H18      H        0.84700    0.38320    0.08380    1.000
    H19      H        0.79390    0.31790    0.09200    1.000
    C12      C        0.70360    0.41140    0.04990    1.000
    H20      H        0.69960    0.46310    0.04440    1.000
    H21      H        0.62870    0.40650    0.06120    1.000
    H22      H        0.73570    0.39090    0.01630    1.000
    C13      C        0.60460    0.22050    0.40380    1.000
    C14      C        0.72250    0.21890    0.37870    1.000
    H23      H        0.76820    0.21000    0.40760    1.000
    H24      H        0.75410    0.17770    0.35750    1.000
    O8       O        0.73020    0.28440    0.34475    1.000
    C15      C        0.55430    0.28080    0.44050    1.000
    H25      H        0.48060    0.27720    0.45880    1.000
    H26      H        0.60240    0.27150    0.46850    1.000
    O9       O        0.54140    0.35370    0.41374    1.000
    C16      C        0.53250    0.23070    0.36160    1.000
    H27      H        0.56340    0.18930    0.34060    1.000
    H28      H        0.45730    0.22970    0.37950    1.000
    O10      O        0.52290    0.29700    0.32600    1.000
    C17      C        0.60750    0.14760    0.44120    1.000
    H29      H        0.63570    0.14870    0.47410    1.000
    H30      H        0.53030    0.14520    0.45170    1.000
    C18      C        0.67830    0.07720    0.41770    1.000
    H31      H        0.66200    0.07970    0.38160    1.000
    H32      H        0.66070    0.03520    0.44060    1.000
    H33      H        0.75730    0.07210    0.41610    1.000
    C19      C        0.26340    0.55490    0.31980    1.000
    C20      C        0.33600    0.59660    0.28090    1.000
    H34      H        0.31160    0.60730    0.24520    1.000
    H35      H        0.32450    0.64360    0.29350    1.000
    O11      O        0.45350    0.55730    0.27557    1.000
    C21      C        0.29480    0.53880    0.37440    1.000
    H36      H        0.28540    0.58550    0.38720    1.000
    H37      H        0.24300    0.51500    0.39870    1.000
    O12      O        0.40640    0.49310    0.37795    1.000
    C22      C        0.27060    0.48480    0.29810    1.000
    H38      H        0.21740    0.46160    0.32180    1.000
    H39      H        0.24700    0.49850    0.26220    1.000
    O13      O        0.37710    0.43300    0.29420    1.000
    C23      C        0.14050    0.60290    0.31980    1.000
    H40      H        0.12410    0.61330    0.28260    1.000
    H41      H        0.09210    0.57410    0.34100    1.000
    C24      C        0.10890    0.67490    0.34180    1.000
    H42      H        0.12400    0.66570    0.37890    1.000
    H43      H        0.02960    0.69970    0.34090    1.000
    H44      H        0.15260    0.70560    0.32000    1.000
    C25      C        0.98200    0.43340    0.22180    1.000
    O14      O        0.00780    0.37010    0.24140    1.000
    O15      O        0.88020    0.47490    0.22060    1.000
    C26      C        0.06630    0.47140    0.19520    1.000
    H45      H        0.14030    0.44070    0.20270    1.000
    H46      H        0.04880    0.51780    0.20910    1.000
    H47      H        0.06520    0.48060    0.15650    1.000
    C27      C        0.81820    0.17600    0.24000    1.000
    O16      O        0.88760    0.18160    0.26620    1.000
    O17      O        0.71540    0.21240    0.24634    1.000
    C28      C        0.85780    0.12710    0.19690    1.000
    H48      H        0.92160    0.13830    0.17330    1.000
    H49      H        0.79770    0.13500    0.17610    1.000
    H50      H        0.88000    0.07610    0.21340    1.000
    C29      C        0.27220    0.37050    0.45180    1.000
    O18      O        0.30540    0.40080    0.48000    1.000
    O19      O        0.31210    0.36230    0.40270    1.000
    C30      C        0.17610    0.33990    0.47340    1.000
    H51      H        0.14520    0.35250    0.50950    1.000
    H52      H        0.20200    0.28680    0.47470    1.000
    H53      H        0.11850    0.36060    0.45000    1.000
    C31      C        0.45750    0.69080    0.34410    1.000
    O20      O        0.48960    0.70110    0.29580    1.000
    O21      O        0.46370    0.62730    0.37045    1.000
    C32      C        0.41300    0.75360    0.37630    1.000
    H54      H        0.47460    0.77000    0.38130    1.000
    H55      H        0.37550    0.73790    0.41140    1.000
    H56      H        0.36000    0.79380    0.35730    1.000
    C33      C        0.41430    0.56400    0.15350    1.000
    O22      O        0.46040    0.61040    0.15660    1.000
    O23      O        0.42330    0.50260    0.18370    1.000
    C34      C        0.34350    0.57980    0.10870    1.000
    H57      H        0.26470    0.59170    0.12400    1.000
    H58      H        0.36360    0.53680    0.09040    1.000
    H59      H        0.35670    0.62110    0.08310    1.000
    O24      O        0.41570    0.57820    0.47680    1.000
    H60      H        0.43150    0.59680    0.44530    1.000
    H61      H        0.36840    0.61180    0.49200    1.000
    Mn7      Mn       0.23412    0.05706    0.15445    1.000
    Mn8      Mn       0.29866    0.96346    0.26136    1.000
    Mn9      Mn       0.31171    0.11885    0.24138    1.000
    Mn10     Mn       0.53172    0.98624    0.24411    1.000
    Mn11     Mn       0.45700    0.92283    0.15663    1.000
    Mn12     Mn       0.47560    0.08855    0.13268    1.000
    Na4      Na       0.05880    0.10401    0.27771    1.000
    Na5      Na       0.37760    0.02656    0.03759    1.000
    Na6      Na       0.55280    0.79581    0.25453    1.000
    Na7      Na       0.58390    0.15558    0.21968    1.000
    O25      O        0.37540    0.01910    0.20465    1.000
    C35      C        0.20880    0.88560    0.17480    1.000
    C36      C        0.25940    0.91470    0.12030    1.000
    H62      H        0.31000    0.87320    0.10230    1.000
    H63      H        0.19930    0.94020    0.09820    1.000
    O26      O        0.32060    0.96440    0.12262    1.000
    C37      C        0.12400    0.94810    0.20280    1.000
    H64      H        0.06480    0.97300    0.18020    1.000
    H65      H        0.08900    0.92700    0.23710    1.000
    O27      O        0.16960    0.00130    0.21340    1.000
    C38      C        0.29780    0.84130    0.20950    1.000
    H66      H        0.26090    0.82340    0.24450    1.000
    H67      H        0.34430    0.79810    0.19220    1.000
    O28      O        0.36930    0.88000    0.21877    1.000
    C39      C        0.14170    0.83570    0.16660    1.000
    H68      H        0.10350    0.82070    0.20220    1.000
    H69      H        0.08320    0.86600    0.14480    1.000
    C40      C        0.19770    0.77250    0.14260    1.000
    H70      H        0.21670    0.78590    0.10400    1.000
    H71      H        0.14980    0.74080    0.14870    1.000
    H72      H        0.26590    0.74660    0.15830    1.000
    C41      C        0.37570    0.02330    0.36310    1.000
    C42      C        0.44230    0.07440    0.33140    1.000
    H73      H        0.40610    0.12380    0.34160    1.000
    H74      H        0.51780    0.05730    0.34180    1.000
    O29      O        0.45180    0.07850    0.27518    1.000
    C43      C        0.25750    0.04870    0.35110    1.000
    H75      H        0.21790    0.01440    0.37220    1.000
    H76      H        0.22010    0.09700    0.36330    1.000
    O30      O        0.24730    0.05440    0.29540    1.000
    C44      C        0.43160    0.94510    0.35180    1.000
    H77      H        0.50590    0.92810    0.36340    1.000
    H78      H        0.38740    0.91400    0.37360    1.000
    O31      O        0.44420    0.93550    0.29649    1.000
    C45      C        0.37100    0.02260    0.42370    1.000
    H79      H        0.33090    0.98770    0.44310    1.000
    H80      H        0.44810    0.00340    0.43210    1.000
    C46      C        0.31660    0.09500    0.44640    1.000
    H81      H        0.35330    0.13110    0.42700    1.000
    H82      H        0.32390    0.08780    0.48450    1.000
    H83      H        0.23770    0.11250    0.44220    1.000
    C47      C        0.23210    0.23340    0.12950    1.000
    C48      C        0.27280    0.18430    0.08570    1.000
    H84      H        0.20910    0.18830    0.06770    1.000
    H85      H        0.32760    0.20230    0.05870    1.000
    O32      O        0.32300    0.10890    0.10396    1.000
    C49      C        0.32690    0.23510    0.15560    1.000
    H86      H        0.38020    0.25330    0.12770    1.000
    H87      H        0.29710    0.27040    0.18170    1.000
    O33      O        0.38600    0.16640    0.18253    1.000
    C50      C        0.14440    0.20950    0.17110    1.000
    H88      H        0.11500    0.24480    0.19730    1.000
    H89      H        0.08200    0.21100    0.15310    1.000
    O34      O        0.18440    0.13810    0.19925    1.000
    C51      C        0.17360    0.31130    0.10420    1.000
    H90      H        0.11470    0.30850    0.08560    1.000
    H91      H        0.13650    0.34090    0.13360    1.000
    C52      C        0.24560    0.35190    0.06470    1.000
    H92      H        0.27280    0.38000    0.08390    1.000
    H93      H        0.20150    0.38510    0.03800    1.000
    H94      H        0.30890    0.31680    0.04670    1.000
    C53      C        0.71770    0.94210    0.13200    1.000
    C54      C        0.70510    0.00940    0.15740    1.000
    H95      H        0.75830    0.99590    0.18350    1.000
    H96      H        0.72590    0.04660    0.12910    1.000
    O35      O        0.59510    0.04160    0.18434    1.000
    C55      C        0.68900    0.88260    0.17400    1.000
    H97      H        0.70180    0.83890    0.15660    1.000
    H98      H        0.74000    0.86920    0.20110    1.000
    O36      O        0.57600    0.90260    0.20082    1.000
    C56      C        0.64330    0.96150    0.08730    1.000
    H99      H        0.66560    0.99890    0.05980    1.000
    H100     H        0.65840    0.91750    0.06990    1.000
    O37      O        0.52700    0.98760    0.10394    1.000
    C57      C        0.84000    0.91540    0.10800    1.000
    H101     H        0.85480    0.95160    0.07720    1.000
    H102     H        0.88590    0.91430    0.13520    1.000
    C58      C        0.87740    0.84380    0.08980    1.000
    H103     H        0.86330    0.80720    0.11970    1.000
    H104     H        0.95710    0.83150    0.07650    1.000
    H105     H        0.83670    0.84490    0.06090    1.000
    C59      C        0.11710    0.93150    0.33830    1.000
    O38      O        0.05620    0.99370    0.33130    1.000
    O39      O        0.22120    0.90960    0.31560    1.000
    C60      C        0.08040    0.87250    0.37420    1.000
    H106     H        0.12670    0.85320    0.40290    1.000
    H107     H        0.08760    0.83330    0.35360    1.000
    H108     H        0.00260    0.89170    0.38980    1.000
    C61      C        0.10690    0.08680    0.06300    1.000
    O40      O        0.19010    0.06590    0.03040    1.000
    O41      O        0.10490    0.08620    0.11271    1.000
    C62      C        0.99170    0.11220    0.04500    1.000
    H109     H        0.96650    0.16560    0.03820    1.000
    H110     H        0.93900    0.09500    0.07320    1.000
    H111     H        0.99590    0.09230    0.01210    1.000
    C63      C        0.16230    0.23140    0.30820    1.000
    O42      O        0.25950    0.20640    0.28210    1.000
    O43      O        0.08480    0.20640    0.30955    1.000
    C64      C        0.15050    0.29260    0.33860    1.000
    H112     H        0.14360    0.33790    0.31380    1.000
    H113     H        0.21620    0.28160    0.35640    1.000
    H114     H        0.08400    0.29820    0.36560    1.000
    C65      C        0.61010    0.18380    0.07790    1.000
    O44      O        0.55320    0.14490    0.06886    1.000
    O45      O        0.62330    0.19000    0.12250    1.000
    C66      C        0.66280    0.22250    0.02910    1.000
    H115     H        0.60730    0.26690    0.01600    1.000
    H116     H        0.69140    0.19050    0.00110    1.000
    H117     H        0.72410    0.23540    0.03820    1.000
    C67      C        0.55910    0.77040    0.12700    1.000
    O46      O        0.56150    0.74660    0.17493    1.000
    O47      O        0.52160    0.83850    0.10912    1.000
    C68      C        0.60140    0.71960    0.08460    1.000
    H118     H        0.60650    0.74820    0.04910    1.000
    H119     H        0.55000    0.69100    0.08690    1.000
    H120     H        0.67500    0.68660    0.09060    1.000
    C69      C        0.72420    0.98630    0.29230    1.000
    O48      O        0.66450    0.94780    0.28416    1.000
    O49      O        0.69910    0.05330    0.27910    1.000
    C70      C        0.82370    0.94550    0.31710    1.000
    H121     H        0.86610    0.90400    0.29790    1.000
    H122     H        0.80180    0.92780    0.35460    1.000
    H123     H        0.86980    0.97750    0.31540    1.000
    O50      O        0.50830    0.08630    0.98953    1.000
    H124     H        0.53470    0.10090    0.01110    1.000
    H125     H        0.49220    0.12100    0.96500    1.000
    Mn13     Mn       0.31036    0.62510    0.61712    1.000
    Mn14     Mn       0.25790    0.54885    0.73724    1.000
    Mn15     Mn       0.34124    0.68968    0.72015    1.000
    Mn16     Mn       0.49453    0.53505    0.75679    1.000
    Mn17     Mn       0.46994    0.47024    0.66175    1.000
    Mn18     Mn       0.55611    0.60975    0.64207    1.000
    Na8      Na       0.08600    0.71197    0.69630    1.000
    Na9      Na       0.55220    0.54616    0.53301    1.000
    Na10     Na       0.42160    0.37510    0.78685    1.000
    O51      O        0.41100    0.57380    0.69353    1.000
    C71      C        0.21890    0.47330    0.63540    1.000
    C72      C        0.31290    0.48210    0.58980    1.000
    H126     H        0.27960    0.51130    0.55800    1.000
    H127     H        0.35710    0.43330    0.58000    1.000
    O52      O        0.38650    0.51650    0.60309    1.000
    C73      C        0.26520    0.42550    0.68420    1.000
    H128     H        0.30890    0.37680    0.67420    1.000
    H129     H        0.20260    0.41920    0.71190    1.000
    O53      O        0.33570    0.45400    0.70703    1.000
    C74      C        0.14100    0.54770    0.65010    1.000
    H130     H        0.07780    0.53940    0.67670    1.000
    H131     H        0.11060    0.57710    0.61770    1.000
    O54      O        0.19400    0.58860    0.67172    1.000
    C75      C        0.14830    0.43300    0.61690    1.000
    H132     H        0.09950    0.41770    0.64860    1.000
    H133     H        0.19940    0.38830    0.60310    1.000
    C76      C        0.07630    0.47600    0.57430    1.000
    H134     H        0.12300    0.49220    0.54260    1.000
    H135     H        0.03850    0.44500    0.56450    1.000
    H136     H        0.02080    0.51850    0.58830    1.000
    C77      C        0.27560    0.61310    0.84880    1.000
    C78      C        0.37870    0.63980    0.83280    1.000
    H137     H        0.43440    0.61140    0.85650    1.000
    H138     H        0.35770    0.69150    0.83830    1.000
    O55      O        0.42900    0.63310    0.77749    1.000
    C79      C        0.18560    0.65610    0.81370    1.000
    H139     H        0.16350    0.70820    0.81830    1.000
    H140     H        0.11940    0.63870    0.82620    1.000
    O56      O        0.21970    0.64960    0.75754    1.000
    C80      C        0.30430    0.53090    0.84610    1.000
    H141     H        0.23620    0.51570    0.85880    1.000
    H142     H        0.35880    0.50390    0.87080    1.000
    O57      O        0.34870    0.51110    0.79419    1.000
    C81      C        0.22380    0.62920    0.90710    1.000
    H143     H        0.15300    0.61680    0.91620    1.000
    H144     H        0.20610    0.68210    0.90800    1.000
    C82      C        0.29640    0.58860    0.95010    1.000
    H145     H        0.30040    0.53690    0.95560    1.000
    H146     H        0.37130    0.59350    0.93880    1.000
    H147     H        0.26430    0.60910    0.98370    1.000
    C83      C        0.39540    0.77950    0.59620    1.000
    C84      C        0.27750    0.78110    0.62130    1.000
    H148     H        0.23180    0.79000    0.59240    1.000
    H149     H        0.24590    0.82230    0.64250    1.000
    O58      O        0.26980    0.71560    0.65525    1.000
    C85      C        0.44570    0.71920    0.55950    1.000
    H150     H        0.51940    0.72280    0.54120    1.000
    H151     H        0.39760    0.72850    0.53150    1.000
    O59      O        0.45860    0.64630    0.58626    1.000
    C86      C        0.46750    0.76930    0.63840    1.000
    H152     H        0.43660    0.81070    0.65940    1.000
    H153     H        0.54270    0.77030    0.62050    1.000
    O60      O        0.47710    0.70300    0.67400    1.000
    C87      C        0.39250    0.85240    0.55880    1.000
    H154     H        0.36430    0.85130    0.52590    1.000
    H155     H        0.46970    0.85480    0.54830    1.000
    C88      C        0.32170    0.92280    0.58230    1.000
    H156     H        0.33800    0.92030    0.61840    1.000
    H157     H        0.33930    0.96480    0.55940    1.000
    H158     H        0.24270    0.92790    0.58390    1.000
    C89      C        0.73660    0.44510    0.68020    1.000
    C90      C        0.66400    0.40340    0.71910    1.000
    H159     H        0.68840    0.39270    0.75480    1.000
    H160     H        0.67550    0.35640    0.70650    1.000
    O61      O        0.54650    0.44270    0.72443    1.000
    C91      C        0.70520    0.46120    0.62560    1.000
    H161     H        0.71460    0.41450    0.61280    1.000
    H162     H        0.75700    0.48500    0.60130    1.000
    O62      O        0.59360    0.50690    0.62205    1.000
    C92      C        0.72940    0.51520    0.70190    1.000
    H163     H        0.78260    0.53840    0.67820    1.000
    H164     H        0.75300    0.50150    0.73780    1.000
    O63      O        0.62290    0.56700    0.70580    1.000
    C93      C        0.85950    0.39710    0.68020    1.000
    H165     H        0.87590    0.38670    0.71740    1.000
    H166     H        0.90790    0.42590    0.65900    1.000
    C94      C        0.89110    0.32510    0.65820    1.000
    H167     H        0.87600    0.33430    0.62110    1.000
    H168     H        0.97040    0.30030    0.65910    1.000
    H169     H        0.84740    0.29440    0.68000    1.000
    C95      C        0.01800    0.56660    0.77820    1.000
    O64      O        0.99220    0.62990    0.75860    1.000
    O65      O        0.11980    0.52510    0.77940    1.000
    C96      C        0.93370    0.52860    0.80480    1.000
    H170     H        0.85970    0.55930    0.79730    1.000
    H171     H        0.95120    0.48220    0.79090    1.000
    H172     H        0.93480    0.51940    0.84350    1.000
    C97      C        0.18180    0.82400    0.76000    1.000
    O66      O        0.11240    0.81840    0.73380    1.000
    O67      O        0.28460    0.78760    0.75366    1.000
    C98      C        0.14220    0.87290    0.80310    1.000
    H173     H        0.07840    0.86170    0.82670    1.000
    H174     H        0.20230    0.86500    0.82390    1.000
    H175     H        0.12000    0.92390    0.78660    1.000
    C99      C        0.72780    0.62950    0.54820    1.000
    O68      O        0.69460    0.59920    0.52000    1.000
    O69      O        0.68790    0.63770    0.59730    1.000
    C100     C        0.82390    0.66010    0.52660    1.000
    H176     H        0.85480    0.64750    0.49050    1.000
    H177     H        0.79800    0.71320    0.52530    1.000
    H178     H        0.88150    0.63940    0.55000    1.000
    C101     C        0.54250    0.30920    0.65590    1.000
    O70      O        0.51040    0.29890    0.70420    1.000
    O71      O        0.53630    0.37270    0.62955    1.000
    C102     C        0.58700    0.24640    0.62370    1.000
    H179     H        0.52540    0.23000    0.61870    1.000
    H180     H        0.62450    0.26210    0.58860    1.000
    H181     H        0.64000    0.20620    0.64270    1.000
    C103     C        0.58570    0.43600    0.84650    1.000
    O72      O        0.53960    0.38960    0.84340    1.000
    O73      O        0.57670    0.49740    0.81630    1.000
    C104     C        0.65650    0.42020    0.89130    1.000
    H182     H        0.73530    0.40830    0.87600    1.000
    H183     H        0.63640    0.46320    0.90960    1.000
    H184     H        0.64330    0.37890    0.91690    1.000
    O74      O        0.58430    0.42180    0.52320    1.000
    H185     H        0.56850    0.40320    0.55470    1.000
    H186     H        0.63160    0.38820    0.50800    1.000
    Mn19     Mn       0.76588    0.94294    0.84555    1.000
    Mn20     Mn       0.70134    0.03654    0.73864    1.000
    Mn21     Mn       0.68829    0.88115    0.75862    1.000
    Mn22     Mn       0.46828    0.01376    0.75589    1.000
    Mn23     Mn       0.54300    0.07717    0.84337    1.000
    Mn24     Mn       0.52440    0.91145    0.86732    1.000
    Na11     Na       0.94120    0.89599    0.72229    1.000
    Na12     Na       0.62240    0.97344    0.96241    1.000
    Na13     Na       0.44720    0.20419    0.74547    1.000
    Na14     Na       0.41610    0.84442    0.78032    1.000
    O75      O        0.62460    0.98090    0.79535    1.000
    C105     C        0.79120    0.11440    0.82520    1.000
    C106     C        0.74060    0.08530    0.87970    1.000
    H187     H        0.69000    0.12680    0.89770    1.000
    H188     H        0.80070    0.05980    0.90180    1.000
    O76      O        0.67940    0.03560    0.87738    1.000
    C107     C        0.87600    0.05190    0.79720    1.000
    H189     H        0.93520    0.02700    0.81980    1.000
    H190     H        0.91100    0.07300    0.76290    1.000
    O77      O        0.83040    0.99870    0.78660    1.000
    C108     C        0.70220    0.15870    0.79050    1.000
    H191     H        0.73910    0.17660    0.75550    1.000
    H192     H        0.65570    0.20190    0.80780    1.000
    O78      O        0.63070    0.12000    0.78123    1.000
    C109     C        0.85830    0.16430    0.83340    1.000
    H193     H        0.89650    0.17930    0.79780    1.000
    H194     H        0.91680    0.13400    0.85520    1.000
    C110     C        0.80230    0.22750    0.85740    1.000
    H195     H        0.78330    0.21410    0.89600    1.000
    H196     H        0.85020    0.25920    0.85130    1.000
    H197     H        0.73410    0.25340    0.84170    1.000
    C111     C        0.62430    0.97670    0.63690    1.000
    C112     C        0.55770    0.92560    0.66860    1.000
    H198     H        0.59390    0.87620    0.65840    1.000
    H199     H        0.48220    0.94270    0.65820    1.000
    O79      O        0.54820    0.92150    0.72482    1.000
    C113     C        0.74250    0.95130    0.64890    1.000
    H200     H        0.78210    0.98560    0.62780    1.000
    H201     H        0.77990    0.90300    0.63670    1.000
    O80      O        0.75270    0.94560    0.70460    1.000
    C114     C        0.56840    0.05490    0.64820    1.000
    H202     H        0.49410    0.07190    0.63660    1.000
    H203     H        0.61260    0.08600    0.62640    1.000
    O81      O        0.55580    0.06450    0.70351    1.000
    C115     C        0.62900    0.97740    0.57630    1.000
    H204     H        0.66910    0.01230    0.55690    1.000
    H205     H        0.55190    0.99660    0.56790    1.000
    C116     C        0.68340    0.90500    0.55360    1.000
    H206     H        0.64670    0.86890    0.57300    1.000
    H207     H        0.67610    0.91220    0.51550    1.000
    H208     H        0.76230    0.88750    0.55780    1.000
    C117     C        0.76790    0.76660    0.87050    1.000
    C118     C        0.72720    0.81570    0.91430    1.000
    H209     H        0.79090    0.81170    0.93230    1.000
    H210     H        0.67240    0.79770    0.94130    1.000
    O82      O        0.67700    0.89110    0.89604    1.000
    C119     C        0.67310    0.76490    0.84440    1.000
    H211     H        0.61980    0.74670    0.87230    1.000
    H212     H        0.70290    0.72960    0.81830    1.000
    O83      O        0.61400    0.83360    0.81747    1.000
    C120     C        0.85560    0.79050    0.82890    1.000
    H213     H        0.88500    0.75520    0.80270    1.000
    H214     H        0.91800    0.78900    0.84690    1.000
    O84      O        0.81560    0.86190    0.80075    1.000
    C121     C        0.82640    0.68870    0.89580    1.000
    H215     H        0.88530    0.69150    0.91440    1.000
    H216     H        0.86350    0.65910    0.86640    1.000
    C122     C        0.75440    0.64810    0.93530    1.000
    H217     H        0.72720    0.62000    0.91610    1.000
    H218     H        0.79850    0.61490    0.96200    1.000
    H219     H        0.69110    0.68320    0.95330    1.000
    C123     C        0.28230    0.05790    0.86800    1.000
    C124     C        0.29490    0.99060    0.84260    1.000
    H220     H        0.24170    0.00410    0.81650    1.000
    H221     H        0.27410    0.95340    0.87090    1.000
    O85      O        0.40490    0.95840    0.81566    1.000
    C125     C        0.31100    0.11740    0.82600    1.000
    H222     H        0.29820    0.16110    0.84340    1.000
    H223     H        0.26000    0.13080    0.79890    1.000
    O86      O        0.42400    0.09740    0.79918    1.000
    C126     C        0.35670    0.03850    0.91270    1.000
    H224     H        0.33440    0.00110    0.94020    1.000
    H225     H        0.34160    0.08250    0.93010    1.000
    O87      O        0.47300    0.01240    0.89606    1.000
    C127     C        0.16000    0.08460    0.89200    1.000
    H226     H        0.14520    0.04840    0.92280    1.000
    H227     H        0.11410    0.08570    0.86480    1.000
    C128     C        0.12260    0.15620    0.91020    1.000
    H228     H        0.13670    0.19280    0.88030    1.000
    H229     H        0.04290    0.16850    0.92350    1.000
    H230     H        0.16330    0.15510    0.93910    1.000
    C129     C        0.88290    0.06850    0.66170    1.000
    O88      O        0.94380    0.00630    0.66870    1.000
    O89      O        0.77880    0.09040    0.68440    1.000
    C130     C        0.91960    0.12750    0.62580    1.000
    H231     H        0.87330    0.14680    0.59710    1.000
    H232     H        0.91240    0.16670    0.64640    1.000
    H233     H        0.99740    0.10830    0.61020    1.000
    C131     C        0.89310    0.91320    0.93700    1.000
    O90      O        0.80990    0.93410    0.96960    1.000
    O91      O        0.89510    0.91380    0.88729    1.000
    C132     C        0.00830    0.88780    0.95500    1.000
    H234     H        0.03350    0.83440    0.96180    1.000
    H235     H        0.06100    0.90500    0.92680    1.000
    H236     H        0.00410    0.90770    0.98790    1.000
    C133     C        0.83770    0.76860    0.69180    1.000
    O92      O        0.74050    0.79360    0.71790    1.000
    O93      O        0.91520    0.79360    0.69045    1.000
    C134     C        0.84950    0.70740    0.66140    1.000
    H237     H        0.85640    0.66210    0.68620    1.000
    H238     H        0.78380    0.71840    0.64360    1.000
    H239     H        0.91600    0.70180    0.63440    1.000
    C135     C        0.38990    0.81620    0.92210    1.000
    O94      O        0.44680    0.85510    0.93114    1.000
    O95      O        0.37670    0.81000    0.87750    1.000
    C136     C        0.33720    0.77750    0.97090    1.000
    H240     H        0.39270    0.73310    0.98400    1.000
    H241     H        0.30860    0.80950    0.99890    1.000
    H242     H        0.27590    0.76460    0.96180    1.000
    C137     C        0.44090    0.22960    0.87300    1.000
    O96      O        0.43850    0.25340    0.82507    1.000
    O97      O        0.47840    0.16150    0.89088    1.000
    C138     C        0.39860    0.28040    0.91540    1.000
    H243     H        0.39350    0.25180    0.95090    1.000
    H244     H        0.45000    0.30900    0.91310    1.000
    H245     H        0.32500    0.31340    0.90940    1.000
    C139     C        0.27580    0.01370    0.70770    1.000
    O98      O        0.33550    0.05220    0.71584    1.000
    O99      O        0.30090    0.94670    0.72090    1.000
    C140     C        0.17630    0.05450    0.68290    1.000
    H246     H        0.13390    0.09600    0.70210    1.000
    H247     H        0.19820    0.07220    0.64540    1.000
    H248     H        0.13020    0.02250    0.68460    1.000
    O100     O        0.49170    0.91370    0.01047    1.000
    H249     H        0.46530    0.89910    0.98890    1.000
    H250     H        0.50780    0.87900    0.03500    1.000
