# CIF file generated by openbabel 3.1.0, see https://openbabel.org
data_I
_chemical_name_common 'image0'
_cell_length_a 7.3181
_cell_length_b 29.042
_cell_length_c 23.593
_cell_angle_alpha 90
_cell_angle_beta 91.721
_cell_angle_gamma 90
_space_group_name_H-M_alt 'P 1'
_space_group_name_Hall 'P 1'
loop_
    _symmetry_equiv_pos_as_xyz
    x,y,z
loop_
    _atom_site_label
    _atom_site_type_symbol
    _atom_site_fract_x
    _atom_site_fract_y
    _atom_site_fract_z
    _atom_site_occupancy
    C1       C        0.77850    0.71122    0.16395    1.000
    C2       C        0.87210    0.67875    0.20449    1.000
    C3       C        0.05560    0.68478    0.22054    1.000
    H1       H        0.12170    0.70890    0.20540    1.000
    C4       C        0.13980    0.65496    0.25890    1.000
    H2       H        0.26150    0.65970    0.26990    1.000
    C5       C        0.04440    0.61783    0.28130    1.000
    C6       C        0.86340    0.61187    0.26432    1.000
    H3       H        0.79790    0.58720    0.27850    1.000
    C7       C        0.77800    0.64203    0.22650    1.000
    H4       H        0.65600    0.63750    0.21580    1.000
    C8       C        0.14790    0.58595    0.32337    1.000
    C9       C        0.01570    0.55297    0.35406    1.000
    C10      C        0.28210    0.55669    0.28849    1.000
    C11      C        0.24650    0.61408    0.37091    1.000
    C12      C        0.15240    0.65154    0.39309    1.000
    H5       H        0.03860    0.65970    0.37760    1.000
    C13      C        0.22760    0.67657    0.43794    1.000
    H6       H        0.16260    0.70110    0.45260    1.000
    C14      C        0.39750    0.66569    0.46127    1.000
    C15      C        0.49280    0.62893    0.43863    1.000
    H7       H        0.60860    0.62160    0.45330    1.000
    C16      C        0.41670    0.60313    0.39444    1.000
    H8       H        0.48080    0.57810    0.38040    1.000
    C17      C        0.47700    0.69229    0.51053    1.000
    C18      C        0.44430    0.80185    0.16695    1.000
    C19      C        0.35980    0.82793    0.21446    1.000
    C20      C        0.19260    0.81510    0.23580    1.000
    H9       H        0.12930    0.79020    0.22020    1.000
    C21      C        0.12010    0.83936    0.28035    1.000
    H10      H        0.00940    0.83000    0.29500    1.000
    C22      C        0.20940    0.87725    0.30350    1.000
    C23      C        0.37560    0.89041    0.28177    1.000
    H11      H        0.43730    0.91590    0.29660    1.000
    C24      C        0.44890    0.86564    0.23804    1.000
    H12      H        0.56100    0.87450    0.22410    1.000
    C25      C        0.11140    0.90556    0.34948    1.000
    C26      C        0.24740    0.93541    0.38617    1.000
    C27      C        0.97930    0.93825    0.31693    1.000
    C28      C        0.01410    0.87409    0.39120    1.000
    C29      C        0.11250    0.83719    0.41529    1.000
    H13      H        0.23140    0.83170    0.40430    1.000
    C30      C        0.03550    0.80873    0.45524    1.000
    H14      H        0.10330    0.78470    0.47130    1.000
    C31      C        0.85760    0.81620    0.47122    1.000
    C32      C        0.76010    0.85257    0.44756    1.000
    H15      H        0.64040    0.85770    0.45820    1.000
    C33      C        0.83730    0.88132    0.40858    1.000
    H16      H        0.76990    0.90590    0.39370    1.000
    C34      C        0.77170    0.78641    0.51532    1.000
    C35      C        0.08330    0.85893    0.07750    1.000
    H17      H        0.12720    0.84290    0.04660    1.000
    C36      C        0.92970    0.87774    0.14847    1.000
    H18      H        0.84300    0.87710    0.17650    1.000
    C37      C        0.05650    0.91087    0.14269    1.000
    H19      H        0.07380    0.93660    0.16570    1.000
    C38      C        0.29860    0.92511    0.07276    1.000
    C39      C        0.47830    0.91936    0.08054    1.000
    H20      H        0.53070    0.89680    0.10380    1.000
    C40      C        0.58040    0.95151    0.04945    1.000
    H21      H        0.70750    0.95230    0.04990    1.000
    C41      C        0.47300    0.98129    0.01871    1.000
    C42      C        0.04710    0.60530    0.08600    1.000
    H22      H        0.92290    0.61590    0.08670    1.000
    H23      H        0.07350    0.58680    0.11900    1.000
    H24      H        0.06390    0.58720    0.05250    1.000
    C43      C        0.17760    0.64720    0.08580    1.000
    Cu1      Cu       0.76402    0.78893    0.09261    1.000
    Cu2      Cu       0.47225    0.73205    0.08769    1.000
    F1       F        0.88450    0.57521    0.37948    1.000
    F2       F        0.93680    0.52204    0.31879    1.000
    F3       F        0.10550    0.52817    0.39432    1.000
    F4       F        0.19870    0.53942    0.24203    1.000
    F5       F        0.35290    0.52065    0.31691    1.000
    F6       F        0.42100    0.58155    0.27129    1.000
    F7       F        0.16480    0.95262    0.43111    1.000
    F8       F        0.31420    0.97114    0.35803    1.000
    F9       F        0.38930    0.91112    0.40532    1.000
    F10      F        0.06360    0.96098    0.27606    1.000
    F11      F        0.90530    0.97018    0.35019    1.000
    F12      F        0.84170    0.91540    0.29203    1.000
    N1       N        0.94690    0.84514    0.10706    1.000
    N2       N        0.15460    0.89929    0.09657    1.000
    N3       N        0.25610    0.68058    0.08428    1.000
    O1       O        0.85980    0.74779    0.15187    1.000
    O2       O        0.62460    0.69865    0.14427    1.000
    O3       O        0.37920    0.72378    0.53005    1.000
    O4       O        0.63250    0.68059    0.52944    1.000
    O5       O        0.59220    0.81720    0.14883    1.000
    O6       O        0.36240    0.76666    0.14893    1.000
    O7       O        0.86530    0.75386    0.53602    1.000
    O8       O        0.61080    0.79702    0.52823    1.000
    S1       S        0.24476    0.96978    0.02746    1.000
    C44      C        0.22150    0.21122    0.33605    1.000
    C45      C        0.12790    0.17875    0.29551    1.000
    C46      C        0.94440    0.18478    0.27946    1.000
    H25      H        0.87830    0.20890    0.29460    1.000
    C47      C        0.86020    0.15496    0.24110    1.000
    H26      H        0.73850    0.15970    0.23010    1.000
    C48      C        0.95560    0.11783    0.21870    1.000
    C49      C        0.13660    0.11187    0.23568    1.000
    H27      H        0.20210    0.08720    0.22150    1.000
    C50      C        0.22200    0.14203    0.27350    1.000
    H28      H        0.34400    0.13750    0.28420    1.000
    C51      C        0.85210    0.08595    0.17663    1.000
    C52      C        0.98430    0.05297    0.14594    1.000
    C53      C        0.71790    0.05669    0.21151    1.000
    C54      C        0.75350    0.11408    0.12909    1.000
    C55      C        0.84760    0.15154    0.10691    1.000
    H29      H        0.96140    0.15970    0.12240    1.000
    C56      C        0.77240    0.17657    0.06206    1.000
    H30      H        0.83740    0.20110    0.04740    1.000
    C57      C        0.60250    0.16569    0.03873    1.000
    C58      C        0.50720    0.12893    0.06137    1.000
    H31      H        0.39140    0.12160    0.04670    1.000
    C59      C        0.58330    0.10313    0.10556    1.000
    H32      H        0.51920    0.07810    0.11960    1.000
    C60      C        0.52300    0.19229    0.98947    1.000
    C61      C        0.55570    0.30185    0.33305    1.000
    C62      C        0.64020    0.32793    0.28554    1.000
    C63      C        0.80740    0.31510    0.26420    1.000
    H33      H        0.87070    0.29020    0.27980    1.000
    C64      C        0.87990    0.33936    0.21965    1.000
    H34      H        0.99060    0.33000    0.20500    1.000
    C65      C        0.79060    0.37725    0.19650    1.000
    C66      C        0.62440    0.39041    0.21823    1.000
    H35      H        0.56270    0.41590    0.20340    1.000
    C67      C        0.55110    0.36564    0.26196    1.000
    H36      H        0.43900    0.37450    0.27590    1.000
    C68      C        0.88860    0.40556    0.15052    1.000
    C69      C        0.75260    0.43541    0.11383    1.000
    C70      C        0.02070    0.43825    0.18307    1.000
    C71      C        0.98590    0.37409    0.10880    1.000
    C72      C        0.88750    0.33719    0.08471    1.000
    H37      H        0.76860    0.33170    0.09570    1.000
    C73      C        0.96450    0.30873    0.04476    1.000
    H38      H        0.89670    0.28470    0.02870    1.000
    C74      C        0.14240    0.31620    0.02878    1.000
    C75      C        0.23990    0.35257    0.05244    1.000
    H39      H        0.35960    0.35770    0.04180    1.000
    C76      C        0.16270    0.38132    0.09142    1.000
    H40      H        0.23010    0.40590    0.10630    1.000
    C77      C        0.22830    0.28641    0.98468    1.000
    C78      C        0.91670    0.35893    0.42250    1.000
    H41      H        0.87280    0.34290    0.45340    1.000
    C79      C        0.07030    0.37774    0.35153    1.000
    H42      H        0.15700    0.37710    0.32350    1.000
    C80      C        0.94350    0.41087    0.35731    1.000
    H43      H        0.92620    0.43660    0.33430    1.000
    C81      C        0.70140    0.42511    0.42724    1.000
    C82      C        0.52170    0.41936    0.41946    1.000
    H44      H        0.46930    0.39680    0.39620    1.000
    C83      C        0.41960    0.45151    0.45055    1.000
    H45      H        0.29250    0.45230    0.45010    1.000
    C84      C        0.52700    0.48129    0.48129    1.000
    C85      C        0.95290    0.10530    0.41400    1.000
    H46      H        0.07710    0.11590    0.41330    1.000
    H47      H        0.92650    0.08680    0.38100    1.000
    H48      H        0.93610    0.08720    0.44750    1.000
    C86      C        0.82240    0.14720    0.41420    1.000
    Cu3      Cu       0.23598    0.28893    0.40739    1.000
    Cu4      Cu       0.52775    0.23205    0.41231    1.000
    F13      F        0.11550    0.07521    0.12052    1.000
    F14      F        0.06320    0.02204    0.18121    1.000
    F15      F        0.89450    0.02817    0.10568    1.000
    F16      F        0.80130    0.03942    0.25797    1.000
    F17      F        0.64710    0.02065    0.18309    1.000
    F18      F        0.57900    0.08155    0.22871    1.000
    F19      F        0.83520    0.45262    0.06889    1.000
    F20      F        0.68580    0.47114    0.14197    1.000
    F21      F        0.61070    0.41112    0.09468    1.000
    F22      F        0.93640    0.46098    0.22394    1.000
    F23      F        0.09470    0.47018    0.14981    1.000
    F24      F        0.15830    0.41540    0.20797    1.000
    N4       N        0.05310    0.34514    0.39294    1.000
    N5       N        0.84540    0.39929    0.40343    1.000
    N6       N        0.74390    0.18058    0.41572    1.000
    O9       O        0.14020    0.24779    0.34813    1.000
    O10      O        0.37540    0.19865    0.35573    1.000
    O11      O        0.62080    0.22378    0.96995    1.000
    O12      O        0.36750    0.18059    0.97056    1.000
    O13      O        0.40780    0.31720    0.35117    1.000
    O14      O        0.63760    0.26666    0.35107    1.000
    O15      O        0.13470    0.25386    0.96398    1.000
    O16      O        0.38920    0.29702    0.97177    1.000
    S2       S        0.75524    0.46978    0.47254    1.000
    C87      C        0.22150    0.28878    0.83605    1.000
    C88      C        0.12790    0.32125    0.79551    1.000
    C89      C        0.94440    0.31522    0.77946    1.000
    H49      H        0.87830    0.29110    0.79460    1.000
    C90      C        0.86020    0.34504    0.74110    1.000
    H50      H        0.73850    0.34030    0.73010    1.000
    C91      C        0.95560    0.38217    0.71870    1.000
    C92      C        0.13660    0.38813    0.73568    1.000
    H51      H        0.20210    0.41280    0.72150    1.000
    C93      C        0.22200    0.35797    0.77350    1.000
    H52      H        0.34400    0.36250    0.78420    1.000
    C94      C        0.85210    0.41405    0.67663    1.000
    C95      C        0.98430    0.44703    0.64594    1.000
    C96      C        0.71790    0.44331    0.71151    1.000
    C97      C        0.75350    0.38592    0.62909    1.000
    C98      C        0.84760    0.34846    0.60691    1.000
    H53      H        0.96140    0.34030    0.62240    1.000
    C99      C        0.77240    0.32343    0.56206    1.000
    H54      H        0.83740    0.29890    0.54740    1.000
    C100     C        0.60250    0.33431    0.53873    1.000
    C101     C        0.50720    0.37107    0.56137    1.000
    H55      H        0.39140    0.37840    0.54670    1.000
    C102     C        0.58330    0.39687    0.60556    1.000
    H56      H        0.51920    0.42190    0.61960    1.000
    C103     C        0.52300    0.30771    0.48947    1.000
    C104     C        0.55570    0.19815    0.83305    1.000
    C105     C        0.64020    0.17207    0.78554    1.000
    C106     C        0.80740    0.18490    0.76420    1.000
    H57      H        0.87070    0.20980    0.77980    1.000
    C107     C        0.87990    0.16064    0.71965    1.000
    H58      H        0.99060    0.17000    0.70500    1.000
    C108     C        0.79060    0.12275    0.69650    1.000
    C109     C        0.62440    0.10959    0.71823    1.000
    H59      H        0.56270    0.08410    0.70340    1.000
    C110     C        0.55110    0.13436    0.76196    1.000
    H60      H        0.43900    0.12550    0.77590    1.000
    C111     C        0.88860    0.09444    0.65052    1.000
    C112     C        0.75260    0.06459    0.61383    1.000
    C113     C        0.02070    0.06175    0.68307    1.000
    C114     C        0.98590    0.12591    0.60880    1.000
    C115     C        0.88750    0.16281    0.58471    1.000
    H61      H        0.76860    0.16830    0.59570    1.000
    C116     C        0.96450    0.19127    0.54476    1.000
    H62      H        0.89670    0.21530    0.52870    1.000
    C117     C        0.14240    0.18380    0.52878    1.000
    C118     C        0.23990    0.14743    0.55244    1.000
    H63      H        0.35960    0.14230    0.54180    1.000
    C119     C        0.16270    0.11868    0.59142    1.000
    H64      H        0.23010    0.09410    0.60630    1.000
    C120     C        0.22830    0.21359    0.48468    1.000
    C121     C        0.91670    0.14107    0.92250    1.000
    H65      H        0.87280    0.15710    0.95340    1.000
    C122     C        0.07030    0.12226    0.85153    1.000
    H66      H        0.15700    0.12290    0.82350    1.000
    C123     C        0.94350    0.08913    0.85731    1.000
    H67      H        0.92620    0.06340    0.83430    1.000
    C124     C        0.70140    0.07489    0.92724    1.000
    C125     C        0.52170    0.08064    0.91946    1.000
    H68      H        0.46930    0.10320    0.89620    1.000
    C126     C        0.41960    0.04849    0.95055    1.000
    H69      H        0.29250    0.04770    0.95010    1.000
    C127     C        0.52700    0.01871    0.98129    1.000
    C128     C        0.95290    0.39470    0.91400    1.000
    H70      H        0.07710    0.38410    0.91330    1.000
    H71      H        0.92650    0.41320    0.88100    1.000
    H72      H        0.93610    0.41280    0.94750    1.000
    C129     C        0.82240    0.35280    0.91420    1.000
    Cu5      Cu       0.23598    0.21107    0.90739    1.000
    Cu6      Cu       0.52775    0.26795    0.91231    1.000
    F25      F        0.11550    0.42479    0.62052    1.000
    F26      F        0.06320    0.47796    0.68121    1.000
    F27      F        0.89450    0.47183    0.60568    1.000
    F28      F        0.80130    0.46058    0.75797    1.000
    F29      F        0.64710    0.47935    0.68309    1.000
    F30      F        0.57900    0.41845    0.72871    1.000
    F31      F        0.83520    0.04738    0.56889    1.000
    F32      F        0.68580    0.02886    0.64197    1.000
    F33      F        0.61070    0.08888    0.59468    1.000
    F34      F        0.93640    0.03902    0.72394    1.000
    F35      F        0.09470    0.02982    0.64981    1.000
    F36      F        0.15830    0.08460    0.70797    1.000
    N7       N        0.05310    0.15486    0.89294    1.000
    N8       N        0.84540    0.10071    0.90343    1.000
    N9       N        0.74390    0.31942    0.91572    1.000
    O17      O        0.14020    0.25221    0.84813    1.000
    O18      O        0.37540    0.30135    0.85573    1.000
    O19      O        0.62080    0.27622    0.46995    1.000
    O20      O        0.36750    0.31941    0.47056    1.000
    O21      O        0.40780    0.18280    0.85117    1.000
    O22      O        0.63760    0.23334    0.85107    1.000
    O23      O        0.13470    0.24614    0.46398    1.000
    O24      O        0.38920    0.20298    0.47177    1.000
    S3       S        0.75524    0.03022    0.97254    1.000
    C130     C        0.77850    0.78878    0.66395    1.000
    C131     C        0.87210    0.82125    0.70449    1.000
    C132     C        0.05560    0.81522    0.72054    1.000
    H73      H        0.12170    0.79110    0.70540    1.000
    C133     C        0.13980    0.84504    0.75890    1.000
    H74      H        0.26150    0.84030    0.76990    1.000
    C134     C        0.04440    0.88217    0.78130    1.000
    C135     C        0.86340    0.88813    0.76432    1.000
    H75      H        0.79790    0.91280    0.77850    1.000
    C136     C        0.77800    0.85797    0.72650    1.000
    H76      H        0.65600    0.86250    0.71580    1.000
    C137     C        0.14790    0.91405    0.82337    1.000
    C138     C        0.01570    0.94703    0.85406    1.000
    C139     C        0.28210    0.94331    0.78849    1.000
    C140     C        0.24650    0.88592    0.87091    1.000
    C141     C        0.15240    0.84846    0.89309    1.000
    H77      H        0.03860    0.84030    0.87760    1.000
    C142     C        0.22760    0.82343    0.93794    1.000
    H78      H        0.16260    0.79890    0.95260    1.000
    C143     C        0.39750    0.83431    0.96127    1.000
    C144     C        0.49280    0.87107    0.93863    1.000
    H79      H        0.60860    0.87840    0.95330    1.000
    C145     C        0.41670    0.89687    0.89444    1.000
    H80      H        0.48080    0.92190    0.88040    1.000
    C146     C        0.47700    0.80771    0.01053    1.000
    C147     C        0.44430    0.69815    0.66695    1.000
    C148     C        0.35980    0.67207    0.71446    1.000
    C149     C        0.19260    0.68490    0.73580    1.000
    H81      H        0.12930    0.70980    0.72020    1.000
    C150     C        0.12010    0.66064    0.78035    1.000
    H82      H        0.00940    0.67000    0.79500    1.000
    C151     C        0.20940    0.62275    0.80350    1.000
    C152     C        0.37560    0.60959    0.78177    1.000
    H83      H        0.43730    0.58410    0.79660    1.000
    C153     C        0.44890    0.63436    0.73804    1.000
    H84      H        0.56100    0.62550    0.72410    1.000
    C154     C        0.11140    0.59444    0.84948    1.000
    C155     C        0.24740    0.56459    0.88617    1.000
    C156     C        0.97930    0.56175    0.81693    1.000
    C157     C        0.01410    0.62591    0.89120    1.000
    C158     C        0.11250    0.66281    0.91529    1.000
    H85      H        0.23140    0.66830    0.90430    1.000
    C159     C        0.03550    0.69127    0.95524    1.000
    H86      H        0.10330    0.71530    0.97130    1.000
    C160     C        0.85760    0.68380    0.97122    1.000
    C161     C        0.76010    0.64743    0.94756    1.000
    H87      H        0.64040    0.64230    0.95820    1.000
    C162     C        0.83730    0.61868    0.90858    1.000
    H88      H        0.76990    0.59410    0.89370    1.000
    C163     C        0.77170    0.71359    0.01532    1.000
    C164     C        0.08330    0.64107    0.57750    1.000
    H89      H        0.12720    0.65710    0.54660    1.000
    C165     C        0.92970    0.62226    0.64847    1.000
    H90      H        0.84300    0.62290    0.67650    1.000
    C166     C        0.05650    0.58913    0.64269    1.000
    H91      H        0.07380    0.56340    0.66570    1.000
    C167     C        0.29860    0.57489    0.57276    1.000
    C168     C        0.47830    0.58064    0.58054    1.000
    H92      H        0.53070    0.60320    0.60380    1.000
    C169     C        0.58040    0.54849    0.54945    1.000
    H93      H        0.70750    0.54770    0.54990    1.000
    C170     C        0.47300    0.51871    0.51871    1.000
    C171     C        0.04710    0.89470    0.58600    1.000
    H94      H        0.92290    0.88410    0.58670    1.000
    H95      H        0.07350    0.91320    0.61900    1.000
    H96      H        0.06390    0.91280    0.55250    1.000
    C172     C        0.17760    0.85280    0.58580    1.000
    Cu7      Cu       0.76402    0.71107    0.59261    1.000
    Cu8      Cu       0.47225    0.76795    0.58769    1.000
    F37      F        0.88450    0.92479    0.87948    1.000
    F38      F        0.93680    0.97796    0.81879    1.000
    F39      F        0.10550    0.97183    0.89432    1.000
    F40      F        0.19870    0.96058    0.74203    1.000
    F41      F        0.35290    0.97935    0.81691    1.000
    F42      F        0.42100    0.91845    0.77129    1.000
    F43      F        0.16480    0.54738    0.93111    1.000
    F44      F        0.31420    0.52886    0.85803    1.000
    F45      F        0.38930    0.58888    0.90532    1.000
    F46      F        0.06360    0.53902    0.77606    1.000
    F47      F        0.90530    0.52982    0.85019    1.000
    F48      F        0.84170    0.58460    0.79203    1.000
    N10      N        0.94690    0.65486    0.60706    1.000
    N11      N        0.15460    0.60071    0.59657    1.000
    N12      N        0.25610    0.81942    0.58428    1.000
    O25      O        0.85980    0.75221    0.65187    1.000
    O26      O        0.62460    0.80135    0.64427    1.000
    O27      O        0.37920    0.77622    0.03005    1.000
    O28      O        0.63250    0.81941    0.02944    1.000
    O29      O        0.59220    0.68280    0.64883    1.000
    O30      O        0.36240    0.73334    0.64893    1.000
    O31      O        0.86530    0.74614    0.03602    1.000
    O32      O        0.61080    0.70298    0.02823    1.000
    S4       S        0.24476    0.53022    0.52746    1.000
