# CIF file generated by openbabel 3.1.0, see https://openbabel.org
data_I
_chemical_name_common 'GUSNEN_clean_h'
_cell_length_a 19.685
_cell_length_b 7.849
_cell_length_c 6.782
_cell_angle_alpha 90
_cell_angle_beta 75.0994
_cell_angle_gamma 90
_space_group_name_H-M_alt 'P 1'
_space_group_name_Hall 'P 1'
loop_
    _symmetry_equiv_pos_as_xyz
    x,y,z
loop_
    _atom_site_label
    _atom_site_type_symbol
    _atom_site_fract_x
    _atom_site_fract_y
    _atom_site_fract_z
    _atom_site_occupancy
    C1       C        0.11100    0.19000    0.17000    1.000
    C2       C        0.19800    0.29600    0.88200    1.000
    C3       C        0.22900    0.18000    0.20400    1.000
    C4       C        0.18400    0.21000    0.07900    1.000
    O5       O        0.06800    0.16600    0.05500    1.000
    O6       O        0.08700    0.14100    0.34800    1.000
    H7       H        0.15552    0.33862    0.80656    1.000
    H8       H        0.20786    0.13774    0.36922    1.000
    H9       H        0.50000    0.74040    0.75000    1.000
    C10      C        0.61100    0.69000    0.17000    1.000
    C11      C        0.69800    0.79600    0.88200    1.000
    C12      C        0.72900    0.68000    0.20400    1.000
    C13      C        0.68400    0.71000    0.07900    1.000
    O14      O        0.56800    0.66600    0.05500    1.000
    O15      O        0.58700    0.64100    0.34800    1.000
    H16      H        0.65552    0.83862    0.80656    1.000
    H17      H        0.70786    0.63774    0.36922    1.000
    H18      H        0.00000    0.24040    0.75000    1.000
    C19      C        0.88900    0.19000    0.33000    1.000
    C20      C        0.80200    0.29600    0.61800    1.000
    C21      C        0.77100    0.18000    0.29600    1.000
    C22      C        0.81600    0.21000    0.42100    1.000
    O23      O        0.93200    0.16600    0.44500    1.000
    O24      O        0.91300    0.14100    0.15200    1.000
    H25      H        0.84448    0.33862    0.69344    1.000
    H26      H        0.79214    0.13774    0.13078    1.000
    C28      C        0.38900    0.69000    0.33000    1.000
    C29      C        0.30200    0.79600    0.61800    1.000
    C30      C        0.27100    0.68000    0.29600    1.000
    C31      C        0.31600    0.71000    0.42100    1.000
    O32      O        0.43200    0.66600    0.44500    1.000
    O33      O        0.41300    0.64100    0.15200    1.000
    H34      H        0.34448    0.83862    0.69344    1.000
    H35      H        0.29214    0.63774    0.13078    1.000
    C37      C        0.88900    0.81000    0.83000    1.000
    C38      C        0.80200    0.70400    0.11800    1.000
    C39      C        0.77100    0.82000    0.79600    1.000
    C40      C        0.81600    0.79000    0.92100    1.000
    O41      O        0.93200    0.83400    0.94500    1.000
    O42      O        0.91300    0.85900    0.65200    1.000
    H43      H        0.84448    0.66138    0.19344    1.000
    H44      H        0.79214    0.86226    0.63078    1.000
    H45      H        0.50000    0.25960    0.25000    1.000
    C46      C        0.38900    0.31000    0.83000    1.000
    C47      C        0.30200    0.20400    0.11800    1.000
    C48      C        0.27100    0.32000    0.79600    1.000
    C49      C        0.31600    0.29000    0.92100    1.000
    O50      O        0.43200    0.33400    0.94500    1.000
    O51      O        0.41300    0.35900    0.65200    1.000
    H52      H        0.34448    0.16138    0.19344    1.000
    H53      H        0.29214    0.36226    0.63078    1.000
    H54      H        0.00000    0.75960    0.25000    1.000
    C55      C        0.11100    0.81000    0.67000    1.000
    C56      C        0.19800    0.70400    0.38200    1.000
    C57      C        0.22900    0.82000    0.70400    1.000
    C58      C        0.18400    0.79000    0.57900    1.000
    O59      O        0.06800    0.83400    0.55500    1.000
    O60      O        0.08700    0.85900    0.84800    1.000
    H61      H        0.15552    0.66138    0.30656    1.000
    H62      H        0.20786    0.86226    0.86922    1.000
    C64      C        0.61100    0.31000    0.67000    1.000
    C65      C        0.69800    0.20400    0.38200    1.000
    C66      C        0.72900    0.32000    0.70400    1.000
    C67      C        0.68400    0.29000    0.57900    1.000
    O68      O        0.56800    0.33400    0.55500    1.000
    O69      O        0.58700    0.35900    0.84800    1.000
    H70      H        0.65552    0.16138    0.30656    1.000
    H71      H        0.70786    0.36226    0.86922    1.000
    Cr73     Cr       0.00000    0.00000    0.50000    1.000
    Cr74     Cr       0.50000    0.50000    0.50000    1.000
    Cr75     Cr       0.00000    0.00000    0.00000    1.000
    Cr76     Cr       0.50000    0.50000    0.00000    1.000
    O77      O        0.00000    0.88700    0.25000    1.000
    O78      O        0.50000    0.38700    0.25000    1.000
    O79      O        0.00000    0.11300    0.75000    1.000
    O80      O        0.50000    0.61300    0.75000    1.000
