# CIF file generated by openbabel 3.1.0, see https://openbabel.org
data_I
_chemical_name_common 'image0'
_cell_length_a 12.8
_cell_length_b 12.8
_cell_length_c 9.984
_cell_angle_alpha 90
_cell_angle_beta 90
_cell_angle_gamma 90
_space_group_name_H-M_alt 'P 1'
_space_group_name_Hall 'P 1'
loop_
    _symmetry_equiv_pos_as_xyz
    x,y,z
loop_
    _atom_site_label
    _atom_site_type_symbol
    _atom_site_fract_x
    _atom_site_fract_y
    _atom_site_fract_z
    _atom_site_occupancy
    C1       C        0.75180    0.69400    0.03630    1.000
    H1       H        0.73320    0.66710    0.11950    1.000
    C2       C        0.70080    0.78180    0.99200    1.000
    H2       H        0.64970    0.81280    0.04500    1.000
    C3       C        0.72560    0.82460    0.86750    1.000
    C4       C        0.80440    0.77530    0.79610    1.000
    H3       H        0.82420    0.80040    0.71240    1.000
    C5       C        0.85260    0.68960    0.84940    1.000
    H4       H        0.90730    0.65990    0.80130    1.000
    C6       C        0.68160    0.92590    0.82160    1.000
    H5       H        0.70900    0.94050    0.73300    1.000
    H6       H        0.70680    0.98030    0.88090    1.000
    C7       C        0.51540    0.86450    0.71400    1.000
    H7       H        0.56570    0.81180    0.68360    1.000
    C8       C        0.41910    0.80940    0.77620    1.000
    H8       H        0.44210    0.75510    0.83560    1.000
    H9       H        0.37720    0.77970    0.70620    1.000
    H10      H        0.37840    0.85940    0.82540    1.000
    C9       C        0.47800    0.92890    0.59430    1.000
    N1       N        0.82610    0.64500    0.96800    1.000
    N2       N        0.56550    0.93290    0.81560    1.000
    H11      H        0.54160    0.91150    0.89590    1.000
    O1       O        0.47800    0.02610    0.59960    1.000
    O2       O        0.44550    0.87530    0.49540    1.000
    Zn1      Zn       0.90972    0.51723    0.04161    1.000
    C10      C        0.24820    0.30600    0.53630    1.000
    H12      H        0.26680    0.33290    0.61950    1.000
    C11      C        0.29920    0.21820    0.49200    1.000
    H13      H        0.35030    0.18720    0.54500    1.000
    C12      C        0.27440    0.17540    0.36750    1.000
    C13      C        0.19560    0.22470    0.29610    1.000
    H14      H        0.17580    0.19960    0.21240    1.000
    C14      C        0.14740    0.31040    0.34940    1.000
    H15      H        0.09270    0.34010    0.30130    1.000
    C15      C        0.31840    0.07410    0.32160    1.000
    H16      H        0.29100    0.05950    0.23300    1.000
    H17      H        0.29320    0.01970    0.38090    1.000
    C16      C        0.48460    0.13550    0.21400    1.000
    H18      H        0.43430    0.18820    0.18360    1.000
    C17      C        0.58090    0.19060    0.27620    1.000
    H19      H        0.55790    0.24490    0.33560    1.000
    H20      H        0.62280    0.22030    0.20620    1.000
    H21      H        0.62160    0.14060    0.32540    1.000
    C18      C        0.52200    0.07110    0.09430    1.000
    N3       N        0.17390    0.35500    0.46800    1.000
    N4       N        0.43450    0.06710    0.31560    1.000
    H22      H        0.45840    0.08850    0.39590    1.000
    O3       O        0.52200    0.97390    0.09960    1.000
    O4       O        0.55450    0.12470    0.99540    1.000
    Zn2      Zn       0.09028    0.48277    0.54161    1.000
    C19      C        0.30600    0.75180    0.28630    1.000
    H23      H        0.33290    0.73320    0.36950    1.000
    C20      C        0.21820    0.70080    0.24200    1.000
    H24      H        0.18720    0.64970    0.29500    1.000
    C21      C        0.17540    0.72560    0.11750    1.000
    C22      C        0.22470    0.80440    0.04610    1.000
    H25      H        0.19960    0.82420    0.96240    1.000
    C23      C        0.31040    0.85260    0.09940    1.000
    H26      H        0.34010    0.90730    0.05130    1.000
    C24      C        0.07410    0.68160    0.07160    1.000
    H27      H        0.05950    0.70900    0.98300    1.000
    H28      H        0.01970    0.70680    0.13090    1.000
    C25      C        0.13550    0.51540    0.96400    1.000
    H29      H        0.18820    0.56570    0.93360    1.000
    C26      C        0.19060    0.41910    0.02620    1.000
    H30      H        0.24490    0.44210    0.08560    1.000
    H31      H        0.22030    0.37720    0.95620    1.000
    H32      H        0.14060    0.37840    0.07540    1.000
    C27      C        0.07110    0.47800    0.84430    1.000
    N5       N        0.35500    0.82610    0.21800    1.000
    N6       N        0.06710    0.56550    0.06560    1.000
    H33      H        0.08850    0.54160    0.14590    1.000
    O5       O        0.97390    0.47800    0.84960    1.000
    O6       O        0.12470    0.44550    0.74540    1.000
    Zn3      Zn       0.48277    0.90972    0.29161    1.000
    C28      C        0.69400    0.24820    0.78630    1.000
    H34      H        0.66710    0.26680    0.86950    1.000
    C29      C        0.78180    0.29920    0.74200    1.000
    H35      H        0.81280    0.35030    0.79500    1.000
    C30      C        0.82460    0.27440    0.61750    1.000
    C31      C        0.77530    0.19560    0.54610    1.000
    H36      H        0.80040    0.17580    0.46240    1.000
    C32      C        0.68960    0.14740    0.59940    1.000
    H37      H        0.65990    0.09270    0.55130    1.000
    C33      C        0.92590    0.31840    0.57160    1.000
    H38      H        0.94050    0.29100    0.48300    1.000
    H39      H        0.98030    0.29320    0.63090    1.000
    C34      C        0.86450    0.48460    0.46400    1.000
    H40      H        0.81180    0.43430    0.43360    1.000
    C35      C        0.80940    0.58090    0.52620    1.000
    H41      H        0.75510    0.55790    0.58560    1.000
    H42      H        0.77970    0.62280    0.45620    1.000
    H43      H        0.85940    0.62160    0.57540    1.000
    C36      C        0.92890    0.52200    0.34430    1.000
    N7       N        0.64500    0.17390    0.71800    1.000
    N8       N        0.93290    0.43450    0.56560    1.000
    H44      H        0.91150    0.45840    0.64590    1.000
    O7       O        0.02610    0.52200    0.34960    1.000
    O8       O        0.87530    0.55450    0.24540    1.000
    Zn4      Zn       0.51723    0.09028    0.79161    1.000
