# CIF file generated by openbabel 3.1.0, see https://openbabel.org
data_I
_chemical_name_common 'HIFGIO_clean'
_cell_length_a 5.966
_cell_length_b 19.0132
_cell_length_c 19.0132
_cell_angle_alpha 101.327
_cell_angle_beta 97.7515
_cell_angle_gamma 82.2485
_space_group_name_H-M_alt 'P 1'
_space_group_name_Hall 'P 1'
loop_
    _symmetry_equiv_pos_as_xyz
    x,y,z
loop_
    _atom_site_label
    _atom_site_type_symbol
    _atom_site_fract_x
    _atom_site_fract_y
    _atom_site_fract_z
    _atom_site_occupancy
    Zn1      Zn       0.50000    0.00000    0.00000    1.000
    Zn2      Zn       0.00000    0.06012    0.06012    1.000
    Zn3      Zn       0.00000    0.93988    0.93988    1.000
    H4       H        0.75230    0.28730    0.07190    1.000
    H5       H        0.55280    0.39690    0.05830    1.000
    H6       H        0.01120    0.30410    0.97090    1.000
    H7       H        0.19040    0.19480    0.99240    1.000
    H8       H        0.04880    0.56100    0.91200    1.000
    H9       H        0.34540    0.47880    0.86920    1.000
    H10      H        0.50220    0.45290    0.93650    1.000
    H11      H        0.35690    0.39720    0.88060    1.000
    H12      H        0.24770    0.07190    0.28730    1.000
    H13      H        0.44720    0.05830    0.39690    1.000
    H14      H        0.98880    0.97090    0.30410    1.000
    H15      H        0.80960    0.99240    0.19480    1.000
    H16      H        0.95120    0.91200    0.56100    1.000
    H17      H        0.65460    0.86920    0.47880    1.000
    H18      H        0.49780    0.93650    0.45290    1.000
    H19      H        0.64310    0.88060    0.39720    1.000
    H20      H        0.24770    0.71270    0.92810    1.000
    H21      H        0.44720    0.60310    0.94170    1.000
    H22      H        0.98880    0.69590    0.02910    1.000
    H23      H        0.80960    0.80520    0.00760    1.000
    H24      H        0.95120    0.43900    0.08800    1.000
    H25      H        0.65460    0.52120    0.13080    1.000
    H26      H        0.49780    0.54710    0.06350    1.000
    H27      H        0.64310    0.60280    0.11940    1.000
    H28      H        0.75230    0.92810    0.71270    1.000
    H29      H        0.55280    0.94170    0.60310    1.000
    H30      H        0.01120    0.02910    0.69590    1.000
    H31      H        0.19040    0.00760    0.80520    1.000
    H32      H        0.04880    0.08800    0.43900    1.000
    H33      H        0.34540    0.13080    0.52120    1.000
    H34      H        0.50220    0.06350    0.54710    1.000
    H35      H        0.35690    0.11940    0.60280    1.000
    C36      C        0.62620    0.15700    0.03440    1.000
    C37      C        0.50070    0.22850    0.02930    1.000
    C38      C        0.59840    0.28910    0.05090    1.000
    C39      C        0.47710    0.35470    0.04290    1.000
    C40      C        0.25830    0.36260    0.01440    1.000
    C41      C        0.16320    0.30170    0.99370    1.000
    C42      C        0.27210    0.23580    0.00340    1.000
    C43      C        0.12560    0.43370    0.00670    1.000
    C44      C        0.15490    0.46940    0.95160    1.000
    C45      C        0.02610    0.53590    0.94850    1.000
    C46      C        0.35890    0.44760    0.90520    1.000
    C47      C        0.37380    0.03440    0.15700    1.000
    C48      C        0.49930    0.02930    0.22850    1.000
    C49      C        0.40160    0.05090    0.28910    1.000
    C50      C        0.52290    0.04290    0.35470    1.000
    C51      C        0.74170    0.01440    0.36260    1.000
    C52      C        0.83680    0.99370    0.30170    1.000
    C53      C        0.72790    0.00340    0.23580    1.000
    C54      C        0.87440    0.00670    0.43370    1.000
    C55      C        0.84510    0.95160    0.46940    1.000
    C56      C        0.97390    0.94850    0.53590    1.000
    C57      C        0.64110    0.90520    0.44760    1.000
    C58      C        0.37380    0.84300    0.96560    1.000
    C59      C        0.49930    0.77150    0.97070    1.000
    C60      C        0.40160    0.71090    0.94910    1.000
    C61      C        0.52290    0.64530    0.95710    1.000
    C62      C        0.74170    0.63740    0.98560    1.000
    C63      C        0.83680    0.69830    0.00630    1.000
    C64      C        0.72790    0.76420    0.99660    1.000
    C65      C        0.87440    0.56630    0.99330    1.000
    C66      C        0.84510    0.53060    0.04840    1.000
    C67      C        0.97390    0.46410    0.05150    1.000
    C68      C        0.64110    0.55240    0.09480    1.000
    C69      C        0.62620    0.96560    0.84300    1.000
    C70      C        0.50070    0.97070    0.77150    1.000
    C71      C        0.59840    0.94910    0.71090    1.000
    C72      C        0.47710    0.95710    0.64530    1.000
    C73      C        0.25830    0.98560    0.63740    1.000
    C74      C        0.16320    0.00630    0.69830    1.000
    C75      C        0.27210    0.99660    0.76420    1.000
    C76      C        0.12560    0.99330    0.56630    1.000
    C77      C        0.15490    0.04840    0.53060    1.000
    C78      C        0.02610    0.05150    0.46410    1.000
    C79      C        0.35890    0.09480    0.55240    1.000
    O80      O        0.54030    0.10380    0.01300    1.000
    O81      O        0.82670    0.15352    0.06040    1.000
    O82      O        0.45970    0.01300    0.10380    1.000
    O83      O        0.17330    0.06040    0.15352    1.000
    O84      O        0.45970    0.89620    0.98700    1.000
    O85      O        0.17330    0.84648    0.93960    1.000
    O86      O        0.54030    0.98700    0.89620    1.000
    O87      O        0.82670    0.93960    0.84648    1.000
    O88      O        0.16270    0.02831    0.97169    1.000
    O89      O        0.83730    0.97169    0.02831    1.000
    H90      H        0.83730    0.91805    0.01777    1.000
    H91      H        0.16270    0.08195    0.98223    1.000
