# CIF file generated by openbabel 3.1.0, see https://openbabel.org
data_I
_chemical_name_common 'TUWPIL_clean'
_cell_length_a 8.1523
_cell_length_b 18.051
_cell_length_c 21.2912
_cell_angle_alpha 90
_cell_angle_beta 90
_cell_angle_gamma 90
_space_group_name_H-M_alt 'P 1'
_space_group_name_Hall 'P 1'
loop_
    _symmetry_equiv_pos_as_xyz
    x,y,z
loop_
    _atom_site_label
    _atom_site_type_symbol
    _atom_site_fract_x
    _atom_site_fract_y
    _atom_site_fract_z
    _atom_site_occupancy
    Cd1      Cd       0.48438    0.78193    0.96306    1.000
    Cd2      Cd       0.01562    0.21807    0.46306    1.000
    Cd3      Cd       0.51562    0.28193    0.53694    1.000
    Cd4      Cd       0.98438    0.71807    0.03694    1.000
    H1       H        0.33430    0.59510    0.57960    1.000
    H2       H        0.75490    0.77250    0.55220    1.000
    H3       H        0.52310    0.49690    0.42710    1.000
    H4       H        0.50020    0.50090    0.83130    1.000
    H5       H        0.60690    0.29290    0.78180    1.000
    H6       H        0.07400    0.57780    0.54070    1.000
    H7       H        0.51930    0.37870    0.85540    1.000
    H8       H        0.26080    0.47890    0.38980    1.000
    H9       H        0.70360    0.61290    0.82220    1.000
    H10      H        0.70400    0.68250    0.77790    1.000
    H11      H        0.66430    0.32910    0.68100    1.000
    H12      H        0.17810    0.67510    0.67020    1.000
    H13      H        0.02370    0.80350    0.53010    1.000
    H14      H        0.91070    0.64320    0.69330    1.000
    H15      H        0.88730    0.44710    0.54870    1.000
    H16      H        0.91600    0.40610    0.61280    1.000
    H17      H        0.23520    0.75710    0.59040    1.000
    H18      H        0.03600    0.51650    0.44630    1.000
    H19      H        0.16570    0.40490    0.07960    1.000
    H20      H        0.74510    0.22750    0.05220    1.000
    H21      H        0.97690    0.50310    0.92710    1.000
    H22      H        0.99980    0.49910    0.33130    1.000
    H23      H        0.89310    0.70710    0.28180    1.000
    H24      H        0.42600    0.42220    0.04070    1.000
    H25      H        0.98070    0.62130    0.35540    1.000
    H26      H        0.23920    0.52110    0.88980    1.000
    H27      H        0.79640    0.38710    0.32220    1.000
    H28      H        0.79600    0.31750    0.27790    1.000
    H29      H        0.83570    0.67090    0.18100    1.000
    H30      H        0.32190    0.32490    0.17020    1.000
    H31      H        0.47630    0.19650    0.03010    1.000
    H32      H        0.58930    0.35680    0.19330    1.000
    H33      H        0.61270    0.55290    0.04870    1.000
    H34      H        0.58400    0.59390    0.11280    1.000
    H35      H        0.26480    0.24290    0.09040    1.000
    H36      H        0.46400    0.48350    0.94630    1.000
    H37      H        0.66570    0.09510    0.92040    1.000
    H38      H        0.24510    0.27250    0.94780    1.000
    H39      H        0.47690    0.99690    0.07290    1.000
    H40      H        0.49980    0.00090    0.66870    1.000
    H41      H        0.39310    0.79290    0.71820    1.000
    H42      H        0.92600    0.07780    0.95930    1.000
    H43      H        0.48070    0.87870    0.64460    1.000
    H44      H        0.73920    0.97890    0.11020    1.000
    H45      H        0.29640    0.11290    0.67780    1.000
    H46      H        0.29600    0.18250    0.72210    1.000
    H47      H        0.33570    0.82910    0.81900    1.000
    H48      H        0.82190    0.17510    0.82980    1.000
    H49      H        0.97630    0.30350    0.96990    1.000
    H50      H        0.08930    0.14320    0.80670    1.000
    H51      H        0.11270    0.94710    0.95130    1.000
    H52      H        0.08400    0.90610    0.88720    1.000
    H53      H        0.76480    0.25710    0.90960    1.000
    H54      H        0.96400    0.01650    0.05370    1.000
    H55      H        0.83430    0.90490    0.42040    1.000
    H56      H        0.25490    0.72750    0.44780    1.000
    H57      H        0.02310    0.00310    0.57290    1.000
    H58      H        0.00020    0.99910    0.16870    1.000
    H59      H        0.10690    0.20710    0.21820    1.000
    H60      H        0.57400    0.92220    0.45930    1.000
    H61      H        0.01930    0.12130    0.14460    1.000
    H62      H        0.76080    0.02110    0.61020    1.000
    H63      H        0.20360    0.88710    0.17780    1.000
    H64      H        0.20400    0.81750    0.22210    1.000
    H65      H        0.16430    0.17090    0.31900    1.000
    H66      H        0.67810    0.82490    0.32980    1.000
    H67      H        0.52370    0.69650    0.46990    1.000
    H68      H        0.41070    0.85680    0.30670    1.000
    H69      H        0.38730    0.05290    0.45130    1.000
    H70      H        0.41600    0.09390    0.38720    1.000
    H71      H        0.73520    0.74290    0.40960    1.000
    H72      H        0.53600    0.98350    0.55370    1.000
    C1       C        0.32010    0.57165    0.54110    1.000
    C2       C        0.64980    0.46388    0.63126    1.000
    C3       C        0.63860    0.53716    0.61517    1.000
    C4       C        0.62040    0.43942    0.69355    1.000
    C5       C        0.60180    0.59125    0.66249    1.000
    C6       C        0.83960    0.75290    0.57630    1.000
    C7       C        0.43330    0.51290    0.45032    1.000
    C8       C        0.53370    0.46730    0.80081    1.000
    C9       C        0.45570    0.54806    0.50781    1.000
    C10      C        0.80500    0.70500    0.62535    1.000
    C11      C        0.59690    0.34250    0.77050    1.000
    C12      C        0.56470    0.56863    0.72202    1.000
    C13      C        0.57220    0.49251    0.73927    1.000
    C14      C        0.16410    0.56090    0.51807    1.000
    C15      C        0.54570    0.39450    0.81509    1.000
    C16      C        0.27590    0.50230    0.42830    1.000
    C17      C        0.56040    0.69734    0.85590    1.000
    C18      C        0.63530    0.65140    0.80408    1.000
    C19      C        0.63230    0.36409    0.71063    1.000
    C20      C        0.09280    0.69510    0.64670    1.000
    C21      C        0.00070    0.77160    0.56330    1.000
    C22      C        0.93270    0.67578    0.66050    1.000
    C23      C        0.85450    0.40477    0.57380    1.000
    C24      C        0.12740    0.74350    0.59880    1.000
    C25      C        0.14110    0.52510    0.46160    1.000
    C26      C        0.89470    0.33464    0.53886    1.000
    C27      C        0.17990    0.42835    0.04110    1.000
    C28      C        0.85020    0.53612    0.13126    1.000
    C29      C        0.86140    0.46284    0.11517    1.000
    C30      C        0.87960    0.56058    0.19355    1.000
    C31      C        0.89820    0.40875    0.16249    1.000
    C32      C        0.66040    0.24710    0.07630    1.000
    C33      C        0.06670    0.48710    0.95032    1.000
    C34      C        0.96630    0.53270    0.30081    1.000
    C35      C        0.04430    0.45194    0.00781    1.000
    C36      C        0.69500    0.29500    0.12535    1.000
    C37      C        0.90310    0.65750    0.27050    1.000
    C38      C        0.93530    0.43137    0.22202    1.000
    C39      C        0.92780    0.50749    0.23927    1.000
    C40      C        0.33590    0.43910    0.01807    1.000
    C41      C        0.95430    0.60550    0.31509    1.000
    C42      C        0.22410    0.49770    0.92830    1.000
    C43      C        0.93960    0.30266    0.35590    1.000
    C44      C        0.86470    0.34860    0.30408    1.000
    C45      C        0.86770    0.63591    0.21063    1.000
    C46      C        0.40720    0.30490    0.14670    1.000
    C47      C        0.49930    0.22840    0.06330    1.000
    C48      C        0.56730    0.32422    0.16050    1.000
    C49      C        0.64550    0.59523    0.07380    1.000
    C50      C        0.37260    0.25650    0.09880    1.000
    C51      C        0.35890    0.47490    0.96160    1.000
    C52      C        0.60530    0.66536    0.03886    1.000
    C53      C        0.67990    0.07165    0.95890    1.000
    C54      C        0.35020    0.96388    0.86874    1.000
    C55      C        0.36140    0.03716    0.88483    1.000
    C56      C        0.37960    0.93942    0.80645    1.000
    C57      C        0.39820    0.09125    0.83751    1.000
    C58      C        0.16040    0.25290    0.92370    1.000
    C59      C        0.56670    0.01290    0.04968    1.000
    C60      C        0.46630    0.96730    0.69919    1.000
    C61      C        0.54430    0.04806    0.99219    1.000
    C62      C        0.19500    0.20500    0.87465    1.000
    C63      C        0.40310    0.84250    0.72950    1.000
    C64      C        0.43530    0.06863    0.77798    1.000
    C65      C        0.42780    0.99251    0.76073    1.000
    C66      C        0.83590    0.06090    0.98193    1.000
    C67      C        0.45430    0.89450    0.68491    1.000
    C68      C        0.72410    0.00230    0.07170    1.000
    C69      C        0.43960    0.19734    0.64410    1.000
    C70      C        0.36470    0.15140    0.69592    1.000
    C71      C        0.36770    0.86409    0.78937    1.000
    C72      C        0.90720    0.19510    0.85330    1.000
    C73      C        0.99930    0.27160    0.93670    1.000
    C74      C        0.06730    0.17578    0.83950    1.000
    C75      C        0.14550    0.90477    0.92620    1.000
    C76      C        0.87260    0.24350    0.90120    1.000
    C77      C        0.85890    0.02510    0.03840    1.000
    C78      C        0.10530    0.83464    0.96114    1.000
    C79      C        0.82010    0.92835    0.45890    1.000
    C80      C        0.14980    0.03612    0.36874    1.000
    C81      C        0.13860    0.96284    0.38483    1.000
    C82      C        0.12040    0.06058    0.30645    1.000
    C83      C        0.10180    0.90875    0.33751    1.000
    C84      C        0.33960    0.74710    0.42370    1.000
    C85      C        0.93330    0.98710    0.54968    1.000
    C86      C        0.03370    0.03270    0.19919    1.000
    C87      C        0.95570    0.95194    0.49219    1.000
    C88      C        0.30500    0.79500    0.37465    1.000
    C89      C        0.09690    0.15750    0.22950    1.000
    C90      C        0.06470    0.93137    0.27798    1.000
    C91      C        0.07220    0.00749    0.26073    1.000
    C92      C        0.66410    0.93910    0.48193    1.000
    C93      C        0.04570    0.10550    0.18491    1.000
    C94      C        0.77590    0.99770    0.57170    1.000
    C95      C        0.06040    0.80266    0.14410    1.000
    C96      C        0.13530    0.84860    0.19592    1.000
    C97      C        0.13230    0.13591    0.28937    1.000
    C98      C        0.59280    0.80490    0.35330    1.000
    C99      C        0.50070    0.72840    0.43670    1.000
    C100     C        0.43270    0.82422    0.33950    1.000
    C101     C        0.35450    0.09523    0.42620    1.000
    C102     C        0.62740    0.75650    0.40120    1.000
    C103     C        0.64110    0.97490    0.53840    1.000
    C104     C        0.39470    0.16536    0.46114    1.000
    S1       S        0.66006    0.56352    0.53483    1.000
    S2       S        0.59568    0.68713    0.64372    1.000
    S3       S        0.83994    0.43648    0.03483    1.000
    S4       S        0.90432    0.31287    0.14372    1.000
    S5       S        0.33994    0.06352    0.96517    1.000
    S6       S        0.40432    0.18713    0.85628    1.000
    S7       S        0.16006    0.93648    0.46517    1.000
    S8       S        0.09568    0.81287    0.35628    1.000
    O1       O        0.50940    0.61842    0.76670    1.000
    O2       O        0.68410    0.40969    0.58725    1.000
    O3       O        0.41220    0.70375    0.86223    1.000
    O4       O        0.66110    0.72882    0.89173    1.000
    O5       O        0.03770    0.32991    0.51758    1.000
    O6       O        0.79120    0.28418    0.53309    1.000
    O7       O        0.99060    0.38158    0.26670    1.000
    O8       O        0.81590    0.59031    0.08725    1.000
    O9       O        0.08780    0.29625    0.36223    1.000
    O10      O        0.83890    0.27118    0.39173    1.000
    O11      O        0.46230    0.67009    0.01758    1.000
    O12      O        0.70880    0.71582    0.03309    1.000
    O13      O        0.49060    0.11842    0.73330    1.000
    O14      O        0.31590    0.90969    0.91275    1.000
    O15      O        0.58780    0.20375    0.63777    1.000
    O16      O        0.33890    0.22882    0.60827    1.000
    O17      O        0.96230    0.82991    0.98242    1.000
    O18      O        0.20880    0.78418    0.96691    1.000
    O19      O        0.00940    0.88158    0.23330    1.000
    O20      O        0.18410    0.09031    0.41275    1.000
    O21      O        0.91220    0.79625    0.13777    1.000
    O22      O        0.16110    0.77118    0.10827    1.000
    O23      O        0.53770    0.17009    0.48242    1.000
    O24      O        0.29120    0.21582    0.46691    1.000
