# CIF file generated by openbabel 3.1.0, see https://openbabel.org
data_I
_chemical_name_common 'image0'
_cell_length_a 10.2724
_cell_length_b 13.3126
_cell_length_c 15.2949
_cell_angle_alpha 100.307
_cell_angle_beta 107.572
_cell_angle_gamma 100.414
_space_group_name_H-M_alt 'P 1'
_space_group_name_Hall 'P 1'
loop_
    _symmetry_equiv_pos_as_xyz
    x,y,z
loop_
    _atom_site_label
    _atom_site_type_symbol
    _atom_site_fract_x
    _atom_site_fract_y
    _atom_site_fract_z
    _atom_site_occupancy
    Ba1      Ba       0.52643    0.82036    0.98816    1.000
    Ba2      Ba       0.91322    0.07525    0.10966    1.000
    C1       C        0.34550    0.29270    0.30330    1.000
    C2       C        0.48540    0.31280    0.35980    1.000
    H1       H        0.55160    0.29980    0.33190    1.000
    C3       C        0.52900    0.35150    0.45630    1.000
    H2       H        0.62420    0.36710    0.49260    1.000
    C4       C        0.43190    0.36740    0.49950    1.000
    H3       H        0.46050    0.39230    0.56490    1.000
    C5       C        0.29120    0.34570    0.44410    1.000
    C6       C        0.24630    0.31150    0.34670    1.000
    C7       C        0.30330    0.24720    0.19850    1.000
    C8       C        0.09280    0.29800    0.29190    1.000
    C9       C        0.22270    0.38200    0.57840    1.000
    C10      C        0.24720    0.30530    0.62600    1.000
    H4       H        0.24080    0.23770    0.59310    1.000
    C11      C        0.28140    0.32950    0.72360    1.000
    C12      C        0.29100    0.43030    0.77210    1.000
    H5       H        0.31580    0.44700    0.83770    1.000
    C13      C        0.26370    0.50680    0.72270    1.000
    C14      C        0.22780    0.48210    0.62460    1.000
    H6       H        0.20770    0.53230    0.59090    1.000
    C15      C        0.30620    0.24940    0.77840    1.000
    C16      C        0.27870    0.61530    0.77720    1.000
    C17      C        0.60570    0.98850    0.79040    1.000
    C18      C        0.67750    0.99380    0.72770    1.000
    H7       H        0.77530    0.01760    0.75050    1.000
    C19      C        0.60520    0.96400    0.63120    1.000
    H8       H        0.65530    0.96820    0.58990    1.000
    C20      C        0.46240    0.92870    0.59540    1.000
    H9       H        0.41490    0.90790    0.53030    1.000
    C21      C        0.38820    0.92410    0.65810    1.000
    C22      C        0.45830    0.95370    0.75500    1.000
    C23      C        0.68970    0.01500    0.89410    1.000
    C24      C        0.36770    0.95060    0.81680    1.000
    C25      C        0.17410    0.86180    0.53080    1.000
    C26      C        0.13560    0.94000    0.48680    1.000
    H10      H        0.15050    0.00800    0.52250    1.000
    C27      C        0.07460    0.91530    0.38850    1.000
    C28      C        0.05540    0.81350    0.33590    1.000
    H11      H        0.01650    0.79710    0.27020    1.000
    C29      C        0.09390    0.73650    0.38110    1.000
    C30      C        0.15120    0.76020    0.47880    1.000
    H12      H        0.17420    0.70800    0.50930    1.000
    C31      C        0.03650    0.99740    0.33740    1.000
    C32      C        0.07620    0.63020    0.32080    1.000
    O1       O        0.17460    0.20590    0.15160    1.000
    O2       O        0.39840    0.25290    0.16350    1.000
    O3       O        0.82630    0.85980    0.02850    1.000
    H13      H        0.82100    0.82900    0.97350    1.000
    H14      H        0.86800    0.82600    0.06400    1.000
    O4       O        0.05980    0.37260    0.25890    1.000
    O5       O        0.00550    0.21380    0.28420    1.000
    O6       O        0.18590    0.36040    0.48010    1.000
    O7       O        0.29580    0.15650    0.72580    1.000
    H15      H        0.30970    0.11190    0.75880    1.000
    O8       O        0.33590    0.26910    0.86380    1.000
    O9       O        0.32050    0.64170    0.86250    1.000
    O10      O        0.24200    0.67740    0.72030    1.000
    H16      H        0.25670    0.73560    0.75980    1.000
    O11      O        0.82200    0.03280    0.91700    1.000
    O12      O        0.62510    0.01580    0.95270    1.000
    O13      O        0.32970    0.86750    0.84020    1.000
    O14      O        0.32770    0.03200    0.83980    1.000
    O15      O        0.24240    0.88810    0.62870    1.000
    O16      O        0.07340    0.09230    0.39170    1.000
    H17      H        0.05390    0.14610    0.36620    1.000
    O17      O        0.97960    0.97440    0.25260    1.000
    O18      O        0.03410    0.61060    0.23520    1.000
    O19      O        0.11130    0.56140    0.36900    1.000
    H18      H        0.11040    0.51030    0.32640    1.000
    Ba3      Ba       0.47357    0.17964    0.01184    1.000
    Ba4      Ba       0.08678    0.92475    0.89034    1.000
    C33      C        0.65450    0.70730    0.69670    1.000
    C34      C        0.51460    0.68720    0.64020    1.000
    H19      H        0.44840    0.70020    0.66810    1.000
    C35      C        0.47100    0.64850    0.54370    1.000
    H20      H        0.37580    0.63290    0.50740    1.000
    C36      C        0.56810    0.63260    0.50050    1.000
    H21      H        0.53950    0.60770    0.43510    1.000
    C37      C        0.70880    0.65430    0.55590    1.000
    C38      C        0.75370    0.68850    0.65330    1.000
    C39      C        0.69670    0.75280    0.80150    1.000
    C40      C        0.90720    0.70200    0.70810    1.000
    C41      C        0.77730    0.61800    0.42160    1.000
    C42      C        0.75280    0.69470    0.37400    1.000
    H22      H        0.75920    0.76230    0.40690    1.000
    C43      C        0.71860    0.67050    0.27640    1.000
    C44      C        0.70900    0.56970    0.22790    1.000
    H23      H        0.68420    0.55300    0.16230    1.000
    C45      C        0.73630    0.49320    0.27730    1.000
    C46      C        0.77220    0.51790    0.37540    1.000
    H24      H        0.79230    0.46770    0.40910    1.000
    C47      C        0.69380    0.75060    0.22160    1.000
    C48      C        0.72130    0.38470    0.22280    1.000
    C49      C        0.39430    0.01150    0.20960    1.000
    C50      C        0.32250    0.00620    0.27230    1.000
    H25      H        0.22470    0.98240    0.24950    1.000
    C51      C        0.39480    0.03600    0.36880    1.000
    H26      H        0.34470    0.03180    0.41010    1.000
    C52      C        0.53760    0.07130    0.40460    1.000
    H27      H        0.58510    0.09210    0.46970    1.000
    C53      C        0.61180    0.07590    0.34190    1.000
    C54      C        0.54170    0.04630    0.24500    1.000
    C55      C        0.31030    0.98500    0.10590    1.000
    C56      C        0.63230    0.04940    0.18320    1.000
    C57      C        0.82590    0.13820    0.46920    1.000
    C58      C        0.86440    0.06000    0.51320    1.000
    H28      H        0.84950    0.99200    0.47750    1.000
    C59      C        0.92540    0.08470    0.61150    1.000
    C60      C        0.94460    0.18650    0.66410    1.000
    H29      H        0.98350    0.20290    0.72980    1.000
    C61      C        0.90610    0.26350    0.61890    1.000
    C62      C        0.84880    0.23980    0.52120    1.000
    H30      H        0.82580    0.29200    0.49070    1.000
    C63      C        0.96350    0.00260    0.66260    1.000
    C64      C        0.92380    0.36980    0.67920    1.000
    O20      O        0.82540    0.79410    0.84840    1.000
    O21      O        0.60160    0.74710    0.83650    1.000
    O22      O        0.17370    0.14020    0.97150    1.000
    H31      H        0.17900    0.17100    0.02650    1.000
    H32      H        0.13200    0.17400    0.93600    1.000
    O23      O        0.94020    0.62740    0.74110    1.000
    O24      O        0.99450    0.78620    0.71580    1.000
    O25      O        0.81410    0.63960    0.51990    1.000
    O26      O        0.70420    0.84350    0.27420    1.000
    H33      H        0.69030    0.88810    0.24120    1.000
    O27      O        0.66410    0.73090    0.13620    1.000
    O28      O        0.67950    0.35830    0.13750    1.000
    O29      O        0.75800    0.32260    0.27970    1.000
    H34      H        0.74330    0.26440    0.24020    1.000
    O30      O        0.17800    0.96720    0.08300    1.000
    O31      O        0.37490    0.98420    0.04730    1.000
    O32      O        0.67030    0.13250    0.15980    1.000
    O33      O        0.67230    0.96800    0.16020    1.000
    O34      O        0.75760    0.11190    0.37130    1.000
    O35      O        0.92660    0.90770    0.60830    1.000
    H35      H        0.94610    0.85390    0.63380    1.000
    O36      O        0.02040    0.02560    0.74740    1.000
    O37      O        0.96590    0.38940    0.76480    1.000
    O38      O        0.88870    0.43860    0.63100    1.000
    H36      H        0.88960    0.48970    0.67360    1.000
