# CIF file generated by openbabel 3.1.0, see https://openbabel.org
data_I
_chemical_name_common 'image0'
_cell_length_a 10.974
_cell_length_b 22.669
_cell_length_c 14.106
_cell_angle_alpha 90
_cell_angle_beta 96.637
_cell_angle_gamma 90
_space_group_name_H-M_alt 'P 1'
_space_group_name_Hall 'P 1'
loop_
    _symmetry_equiv_pos_as_xyz
    x,y,z
loop_
    _atom_site_label
    _atom_site_type_symbol
    _atom_site_fract_x
    _atom_site_fract_y
    _atom_site_fract_z
    _atom_site_occupancy
    Cd1      Cd       0.86819    0.07323    0.77806    1.000
    C1       C        0.61810    0.05650    0.86830    1.000
    H1       H        0.67760    0.04440    0.91670    1.000
    C2       C        0.49870    0.05420    0.88420    1.000
    H2       H        0.47840    0.04050    0.94250    1.000
    C3       C        0.40770    0.07190    0.81560    1.000
    C4       C        0.44410    0.09280    0.73140    1.000
    H3       H        0.38630    0.10640    0.68290    1.000
    C5       C        0.56640    0.09320    0.72030    1.000
    H4       H        0.58930    0.10680    0.66280    1.000
    C6       C        0.27970    0.06620    0.83070    1.000
    C7       C        0.92030    0.29230    0.23460    1.000
    H5       H        0.95070    0.29370    0.29890    1.000
    C8       C        0.92390    0.24000    0.18870    1.000
    H6       H        0.95690    0.20690    0.22090    1.000
    C9       C        0.87820    0.23640    0.09390    1.000
    C10      C        0.83160    0.28680    0.04950    1.000
    H7       H        0.79980    0.28650    0.98540    1.000
    C11      C        0.83330    0.33760    0.10230    1.000
    H8       H        0.80200    0.37160    0.07180    1.000
    C12      C        0.88260    0.18140    0.04070    1.000
    N1       N        0.65400    0.07530    0.78640    1.000
    N2       N        0.24680    0.03980    0.90900    1.000
    N3       N        0.12550    0.04300    0.89760    1.000
    N4       N        0.08720    0.06930    0.81530    1.000
    N5       N        0.18290    0.08480    0.77230    1.000
    N6       N        0.87620    0.34160    0.19370    1.000
    N7       N        0.92100    0.13080    0.08110    1.000
    N8       N        0.91620    0.09320    0.00860    1.000
    N9       N        0.87810    0.12120    0.92850    1.000
    N10      N        0.85570    0.17730    0.94690    1.000
    N11      N        0.87120    0.98720    0.86150    1.000
    N12      N        0.81400    0.94500    0.83740    1.000
    N13      N        0.75990    0.90500    0.81230    1.000
    Cd2      Cd       0.13181    0.57323    0.72194    1.000
    C13      C        0.38190    0.55650    0.63170    1.000
    H9       H        0.32240    0.54440    0.58330    1.000
    C14      C        0.50130    0.55420    0.61580    1.000
    H10      H        0.52160    0.54050    0.55750    1.000
    C15      C        0.59230    0.57190    0.68440    1.000
    C16      C        0.55590    0.59280    0.76860    1.000
    H11      H        0.61370    0.60640    0.81710    1.000
    C17      C        0.43360    0.59320    0.77970    1.000
    H12      H        0.41070    0.60680    0.83720    1.000
    C18      C        0.72030    0.56620    0.66930    1.000
    C19      C        0.07970    0.79230    0.26540    1.000
    H13      H        0.04930    0.79370    0.20110    1.000
    C20      C        0.07610    0.74000    0.31130    1.000
    H14      H        0.04310    0.70690    0.27910    1.000
    C21      C        0.12180    0.73640    0.40610    1.000
    C22      C        0.16840    0.78680    0.45050    1.000
    H15      H        0.20020    0.78650    0.51460    1.000
    C23      C        0.16670    0.83760    0.39770    1.000
    H16      H        0.19800    0.87160    0.42820    1.000
    C24      C        0.11740    0.68140    0.45930    1.000
    N14      N        0.34600    0.57530    0.71360    1.000
    N15      N        0.75320    0.53980    0.59100    1.000
    N16      N        0.87450    0.54300    0.60240    1.000
    N17      N        0.91280    0.56930    0.68470    1.000
    N18      N        0.81710    0.58480    0.72770    1.000
    N19      N        0.12380    0.84160    0.30630    1.000
    N20      N        0.07900    0.63080    0.41890    1.000
    N21      N        0.08380    0.59320    0.49140    1.000
    N22      N        0.12190    0.62120    0.57150    1.000
    N23      N        0.14430    0.67730    0.55310    1.000
    N24      N        0.12880    0.48720    0.63850    1.000
    N25      N        0.18600    0.44500    0.66260    1.000
    N26      N        0.24010    0.40500    0.68770    1.000
    Cd3      Cd       0.13181    0.92677    0.22194    1.000
    C25      C        0.38190    0.94350    0.13170    1.000
    H17      H        0.32240    0.95560    0.08330    1.000
    C26      C        0.50130    0.94580    0.11580    1.000
    H18      H        0.52160    0.95950    0.05750    1.000
    C27      C        0.59230    0.92810    0.18440    1.000
    C28      C        0.55590    0.90720    0.26860    1.000
    H19      H        0.61370    0.89360    0.31710    1.000
    C29      C        0.43360    0.90680    0.27970    1.000
    H20      H        0.41070    0.89320    0.33720    1.000
    C30      C        0.72030    0.93380    0.16930    1.000
    C31      C        0.07970    0.70770    0.76540    1.000
    H21      H        0.04930    0.70630    0.70110    1.000
    C32      C        0.07610    0.76000    0.81130    1.000
    H22      H        0.04310    0.79310    0.77910    1.000
    C33      C        0.12180    0.76360    0.90610    1.000
    C34      C        0.16840    0.71320    0.95050    1.000
    H23      H        0.20020    0.71350    0.01460    1.000
    C35      C        0.16670    0.66240    0.89770    1.000
    H24      H        0.19800    0.62840    0.92820    1.000
    C36      C        0.11740    0.81860    0.95930    1.000
    N27      N        0.34600    0.92470    0.21360    1.000
    N28      N        0.75320    0.96020    0.09100    1.000
    N29      N        0.87450    0.95700    0.10240    1.000
    N30      N        0.91280    0.93070    0.18470    1.000
    N31      N        0.81710    0.91520    0.22770    1.000
    N32      N        0.12380    0.65840    0.80630    1.000
    N33      N        0.07900    0.86920    0.91890    1.000
    N34      N        0.08380    0.90680    0.99140    1.000
    N35      N        0.12190    0.87880    0.07150    1.000
    N36      N        0.14430    0.82270    0.05310    1.000
    N37      N        0.12880    0.01280    0.13850    1.000
    N38      N        0.18600    0.05500    0.16260    1.000
    N39      N        0.24010    0.09500    0.18770    1.000
    Cd4      Cd       0.86819    0.42677    0.27806    1.000
    C37      C        0.61810    0.44350    0.36830    1.000
    H25      H        0.67760    0.45560    0.41670    1.000
    C38      C        0.49870    0.44580    0.38420    1.000
    H26      H        0.47840    0.45950    0.44250    1.000
    C39      C        0.40770    0.42810    0.31560    1.000
    C40      C        0.44410    0.40720    0.23140    1.000
    H27      H        0.38630    0.39360    0.18290    1.000
    C41      C        0.56640    0.40680    0.22030    1.000
    H28      H        0.58930    0.39320    0.16280    1.000
    C42      C        0.27970    0.43380    0.33070    1.000
    C43      C        0.92030    0.20770    0.73460    1.000
    H29      H        0.95070    0.20630    0.79890    1.000
    C44      C        0.92390    0.26000    0.68870    1.000
    H30      H        0.95690    0.29310    0.72090    1.000
    C45      C        0.87820    0.26360    0.59390    1.000
    C46      C        0.83160    0.21320    0.54950    1.000
    H31      H        0.79980    0.21350    0.48540    1.000
    C47      C        0.83330    0.16240    0.60230    1.000
    H32      H        0.80200    0.12840    0.57180    1.000
    C48      C        0.88260    0.31860    0.54070    1.000
    N40      N        0.65400    0.42470    0.28640    1.000
    N41      N        0.24680    0.46020    0.40900    1.000
    N42      N        0.12550    0.45700    0.39760    1.000
    N43      N        0.08720    0.43070    0.31530    1.000
    N44      N        0.18290    0.41520    0.27230    1.000
    N45      N        0.87620    0.15840    0.69370    1.000
    N46      N        0.92100    0.36920    0.58110    1.000
    N47      N        0.91620    0.40680    0.50860    1.000
    N48      N        0.87810    0.37880    0.42850    1.000
    N49      N        0.85570    0.32270    0.44690    1.000
    N50      N        0.87120    0.51280    0.36150    1.000
    N51      N        0.81400    0.55500    0.33740    1.000
    N52      N        0.75990    0.59500    0.31230    1.000
    Cd5      Cd       0.00000    0.00000    0.00000    1.000
    Cd6      Cd       0.00000    0.50000    0.50000    1.000
