# CIF file generated by openbabel 3.1.0, see https://openbabel.org
data_I
_chemical_name_common 'image0'
_cell_length_a 23.74
_cell_length_b 23.74
_cell_length_c 13.4851
_cell_angle_alpha 90
_cell_angle_beta 90
_cell_angle_gamma 120
_space_group_name_H-M_alt 'P 1'
_space_group_name_Hall 'P 1'
loop_
    _symmetry_equiv_pos_as_xyz
    x,y,z
loop_
    _atom_site_label
    _atom_site_type_symbol
    _atom_site_fract_x
    _atom_site_fract_y
    _atom_site_fract_z
    _atom_site_occupancy
    Co1      Co       0.36039    0.09308    0.11998    1.000
    Ga1      Ga       0.34972    0.24283    0.91544    1.000
    P1       P        0.41876    0.23621    0.11950    1.000
    P2       P        0.32680    0.98697    0.27725    1.000
    O1       O        0.36713    0.21028    0.03778    1.000
    O2       O        0.42224    0.17569    0.15628    1.000
    O3       O        0.39144    0.25911    0.20680    1.000
    O4       O        0.48401    0.28968    0.08920    1.000
    O5       O        0.37523    0.04469    0.21210    1.000
    O6       O        0.36709    0.95882    0.32526    1.000
    O7       O        0.27161    0.93529    0.21766    1.000
    O8       O        0.30032    0.01065    0.36039    1.000
    N1       N        0.44436    0.27577    0.86930    1.000
    N2       N        0.33240    0.15663    0.85130    1.000
    N3       N        0.25099    0.18888    0.94120    1.000
    C1       C        0.44730    0.21860    0.83110    1.000
    C2       C        0.38490    0.17300    0.77970    1.000
    C3       C        0.26500    0.12300    0.81680    1.000
    C4       C        0.22370    0.12140    0.90290    1.000
    H1       H        0.45110    0.29860    0.81330    1.000
    H2       H        0.47340    0.29080    0.92170    1.000
    H3       H        0.33280    0.12730    0.89550    1.000
    H4       H        0.24610    0.19100    0.00770    1.000
    H5       H        0.22990    0.20340    0.90830    1.000
    H6       H        0.45370    0.19330    0.89050    1.000
    H7       H        0.47320    0.23490    0.78580    1.000
    H8       H        0.38280    0.19860    0.72430    1.000
    H9       H        0.37750    0.12860    0.75630    1.000
    H10      H        0.26080    0.14780    0.75720    1.000
    H11      H        0.24730    0.07720    0.80450    1.000
    H12      H        0.23070    0.10010    0.95700    1.000
    H13      H        0.17580    0.10010    0.86790    1.000
    Ga2      Ga       0.30628    0.24025    0.21335    1.000
    Co2      Co       0.02706    0.42641    0.45331    1.000
    Ga3      Ga       0.01639    0.57616    0.24877    1.000
    P3       P        0.08543    0.56954    0.45283    1.000
    P4       P        0.99347    0.32030    0.61058    1.000
    O9       O        0.03380    0.54361    0.37111    1.000
    O10      O        0.08891    0.50902    0.48961    1.000
    O11      O        0.05811    0.59244    0.54013    1.000
    O12      O        0.15068    0.62301    0.42253    1.000
    O13      O        0.04190    0.37802    0.54543    1.000
    O14      O        0.03376    0.29215    0.65859    1.000
    O15      O        0.93828    0.26862    0.55099    1.000
    O16      O        0.96699    0.34398    0.69372    1.000
    N4       N        0.11103    0.60910    0.20263    1.000
    N5       N        0.99907    0.48996    0.18463    1.000
    N6       N        0.91766    0.52221    0.27453    1.000
    C5       C        0.11397    0.55193    0.16443    1.000
    C6       C        0.05157    0.50633    0.11303    1.000
    C7       C        0.93167    0.45633    0.15013    1.000
    C8       C        0.89037    0.45473    0.23623    1.000
    H14      H        0.11777    0.63193    0.14663    1.000
    H15      H        0.14007    0.62413    0.25503    1.000
    H16      H        0.99947    0.46063    0.22883    1.000
    H17      H        0.91277    0.52433    0.34103    1.000
    H18      H        0.89657    0.53673    0.24163    1.000
    H19      H        0.12037    0.52663    0.22383    1.000
    H20      H        0.13987    0.56823    0.11913    1.000
    H21      H        0.04947    0.53193    0.05763    1.000
    H22      H        0.04417    0.46193    0.08963    1.000
    H23      H        0.92747    0.48113    0.09053    1.000
    H24      H        0.91397    0.41053    0.13783    1.000
    H25      H        0.89737    0.43343    0.29033    1.000
    H26      H        0.84247    0.43343    0.20123    1.000
    Ga4      Ga       0.97294    0.57359    0.54669    1.000
    Co3      Co       0.69372    0.75975    0.78665    1.000
    Ga5      Ga       0.68305    0.90950    0.58211    1.000
    P5       P        0.75209    0.90288    0.78617    1.000
    P6       P        0.66013    0.65364    0.94392    1.000
    O17      O        0.70046    0.87695    0.70445    1.000
    O18      O        0.75557    0.84236    0.82295    1.000
    O19      O        0.72477    0.92578    0.87347    1.000
    O20      O        0.81734    0.95635    0.75587    1.000
    O21      O        0.70856    0.71136    0.87877    1.000
    O22      O        0.70042    0.62549    0.99193    1.000
    O23      O        0.60494    0.60196    0.88433    1.000
    O24      O        0.63365    0.67732    0.02706    1.000
    N7       N        0.77769    0.94244    0.53597    1.000
    N8       N        0.66573    0.82330    0.51797    1.000
    N9       N        0.58432    0.85555    0.60787    1.000
    C9       C        0.78063    0.88527    0.49777    1.000
    C10      C        0.71823    0.83967    0.44637    1.000
    C11      C        0.59833    0.78967    0.48347    1.000
    C12      C        0.55703    0.78807    0.56957    1.000
    H27      H        0.78443    0.96527    0.47997    1.000
    H28      H        0.80673    0.95747    0.58837    1.000
    H29      H        0.66613    0.79397    0.56217    1.000
    H30      H        0.57943    0.85767    0.67437    1.000
    H31      H        0.56323    0.87007    0.57497    1.000
    H32      H        0.78703    0.85997    0.55717    1.000
    H33      H        0.80653    0.90157    0.45247    1.000
    H34      H        0.71613    0.86527    0.39097    1.000
    H35      H        0.71083    0.79527    0.42297    1.000
    H36      H        0.59413    0.81447    0.42387    1.000
    H37      H        0.58063    0.74387    0.47117    1.000
    H38      H        0.56403    0.76677    0.62367    1.000
    H39      H        0.50913    0.76677    0.53457    1.000
    Ga6      Ga       0.63961    0.90692    0.88002    1.000
    Co4      Co       0.90692    0.26731    0.11998    1.000
    Ga7      Ga       0.75717    0.10689    0.91544    1.000
    P7       P        0.76379    0.18255    0.11950    1.000
    P8       P        0.01303    0.33983    0.27725    1.000
    O25      O        0.78972    0.15685    0.03778    1.000
    O26      O        0.82431    0.24655    0.15628    1.000
    O27      O        0.74089    0.13233    0.20680    1.000
    O28      O        0.71032    0.19433    0.08920    1.000
    O29      O        0.95531    0.33054    0.21210    1.000
    O30      O        0.04118    0.40827    0.32526    1.000
    O31      O        0.06471    0.33632    0.21766    1.000
    O32      O        0.98935    0.28967    0.36039    1.000
    N10      N        0.72423    0.16859    0.86930    1.000
    N11      N        0.84337    0.17577    0.85130    1.000
    N12      N        0.81112    0.06211    0.94120    1.000
    C13      C        0.78140    0.22870    0.83110    1.000
    C14      C        0.82700    0.21190    0.77970    1.000
    C15      C        0.87700    0.14200    0.81680    1.000
    C16      C        0.87860    0.10230    0.90290    1.000
    H40      H        0.70140    0.15250    0.81330    1.000
    H41      H        0.70920    0.18260    0.92170    1.000
    H42      H        0.87270    0.20550    0.89550    1.000
    H43      H        0.80900    0.05510    0.00770    1.000
    H44      H        0.79660    0.02650    0.90830    1.000
    H45      H        0.80670    0.26040    0.89050    1.000
    H46      H        0.76510    0.23830    0.78580    1.000
    H47      H        0.80140    0.18420    0.72430    1.000
    H48      H        0.87140    0.24890    0.75630    1.000
    H49      H        0.85220    0.11300    0.75720    1.000
    H50      H        0.92280    0.17010    0.80450    1.000
    H51      H        0.89990    0.13060    0.95700    1.000
    H52      H        0.89990    0.07570    0.86790    1.000
    Ga8      Ga       0.75975    0.06602    0.21335    1.000
    Co5      Co       0.57359    0.60064    0.45331    1.000
    Ga9      Ga       0.42384    0.44022    0.24877    1.000
    P9       P        0.43046    0.51588    0.45283    1.000
    P10      P        0.67970    0.67316    0.61058    1.000
    O33      O        0.45639    0.49018    0.37111    1.000
    O34      O        0.49098    0.57988    0.48961    1.000
    O35      O        0.40756    0.46566    0.54013    1.000
    O36      O        0.37699    0.52766    0.42253    1.000
    O37      O        0.62198    0.66387    0.54543    1.000
    O38      O        0.70785    0.74160    0.65859    1.000
    O39      O        0.73138    0.66965    0.55099    1.000
    O40      O        0.65602    0.62300    0.69372    1.000
    N13      N        0.39090    0.50192    0.20263    1.000
    N14      N        0.51004    0.50910    0.18463    1.000
    N15      N        0.47779    0.39544    0.27453    1.000
    C17      C        0.44807    0.56203    0.16443    1.000
    C18      C        0.49367    0.54523    0.11303    1.000
    C19      C        0.54367    0.47533    0.15013    1.000
    C20      C        0.54527    0.43563    0.23623    1.000
    H53      H        0.36807    0.48583    0.14663    1.000
    H54      H        0.37587    0.51593    0.25503    1.000
    H55      H        0.53937    0.53883    0.22883    1.000
    H56      H        0.47567    0.38843    0.34103    1.000
    H57      H        0.46327    0.35983    0.24163    1.000
    H58      H        0.47337    0.59373    0.22383    1.000
    H59      H        0.43177    0.57163    0.11913    1.000
    H60      H        0.46807    0.51753    0.05763    1.000
    H61      H        0.53807    0.58223    0.08963    1.000
    H62      H        0.51887    0.44633    0.09053    1.000
    H63      H        0.58947    0.50343    0.13783    1.000
    H64      H        0.56657    0.46393    0.29033    1.000
    H65      H        0.56657    0.40903    0.20123    1.000
    Ga10     Ga       0.42641    0.39936    0.54669    1.000
    Co6      Co       0.24025    0.93398    0.78665    1.000
    Ga11     Ga       0.09050    0.77356    0.58211    1.000
    P11      P        0.09712    0.84922    0.78617    1.000
    P12      P        0.34636    0.00650    0.94392    1.000
    O41      O        0.12305    0.82352    0.70445    1.000
    O42      O        0.15764    0.91322    0.82295    1.000
    O43      O        0.07422    0.79900    0.87347    1.000
    O44      O        0.04365    0.86100    0.75587    1.000
    O45      O        0.28864    0.99721    0.87877    1.000
    O46      O        0.37451    0.07494    0.99193    1.000
    O47      O        0.39804    0.00299    0.88433    1.000
    O48      O        0.32268    0.95634    0.02706    1.000
    N16      N        0.05756    0.83526    0.53597    1.000
    N17      N        0.17670    0.84244    0.51797    1.000
    N18      N        0.14445    0.72878    0.60787    1.000
    C21      C        0.11473    0.89537    0.49777    1.000
    C22      C        0.16033    0.87857    0.44637    1.000
    C23      C        0.21033    0.80867    0.48347    1.000
    C24      C        0.21193    0.76897    0.56957    1.000
    H66      H        0.03473    0.81917    0.47997    1.000
    H67      H        0.04253    0.84927    0.58837    1.000
    H68      H        0.20603    0.87217    0.56217    1.000
    H69      H        0.14233    0.72177    0.67437    1.000
    H70      H        0.12993    0.69317    0.57497    1.000
    H71      H        0.14003    0.92707    0.55717    1.000
    H72      H        0.09843    0.90497    0.45247    1.000
    H73      H        0.13473    0.85087    0.39097    1.000
    H74      H        0.20473    0.91557    0.42297    1.000
    H75      H        0.18553    0.77967    0.42387    1.000
    H76      H        0.25613    0.83677    0.47117    1.000
    H77      H        0.23323    0.79727    0.62367    1.000
    H78      H        0.23323    0.74237    0.53457    1.000
    Ga12     Ga       0.09308    0.73269    0.88002    1.000
    Co7      Co       0.73269    0.63961    0.11998    1.000
    Ga13     Ga       0.89311    0.65028    0.91544    1.000
    P13      P        0.81745    0.58124    0.11950    1.000
    P14      P        0.66017    0.67320    0.27725    1.000
    O49      O        0.84315    0.63287    0.03778    1.000
    O50      O        0.75345    0.57776    0.15628    1.000
    O51      O        0.86767    0.60856    0.20680    1.000
    O52      O        0.80567    0.51599    0.08920    1.000
    O53      O        0.66946    0.62477    0.21210    1.000
    O54      O        0.59173    0.63291    0.32526    1.000
    O55      O        0.66368    0.72839    0.21766    1.000
    O56      O        0.71033    0.69968    0.36039    1.000
    N19      N        0.83141    0.55564    0.86930    1.000
    N20      N        0.82423    0.66760    0.85130    1.000
    N21      N        0.93789    0.74901    0.94120    1.000
    C25      C        0.77130    0.55270    0.83110    1.000
    C26      C        0.78810    0.61510    0.77970    1.000
    C27      C        0.85800    0.73500    0.81680    1.000
    C28      C        0.89770    0.77630    0.90290    1.000
    H79      H        0.84750    0.54890    0.81330    1.000
    H80      H        0.81740    0.52660    0.92170    1.000
    H81      H        0.79450    0.66720    0.89550    1.000
    H82      H        0.94490    0.75390    0.00770    1.000
    H83      H        0.97350    0.77010    0.90830    1.000
    H84      H        0.73960    0.54630    0.89050    1.000
    H85      H        0.76170    0.52680    0.78580    1.000
    H86      H        0.81580    0.61720    0.72430    1.000
    H87      H        0.75110    0.62250    0.75630    1.000
    H88      H        0.88700    0.73920    0.75720    1.000
    H89      H        0.82990    0.75270    0.80450    1.000
    H90      H        0.86940    0.76930    0.95700    1.000
    H91      H        0.92430    0.82420    0.86790    1.000
    Ga14     Ga       0.93398    0.69372    0.21335    1.000
    Co8      Co       0.39936    0.97294    0.45331    1.000
    Ga15     Ga       0.55978    0.98361    0.24877    1.000
    P15      P        0.48412    0.91457    0.45283    1.000
    P16      P        0.32684    0.00653    0.61058    1.000
    O57      O        0.50982    0.96620    0.37111    1.000
    O58      O        0.42012    0.91109    0.48961    1.000
    O59      O        0.53434    0.94189    0.54013    1.000
    O60      O        0.47234    0.84932    0.42253    1.000
    O61      O        0.33613    0.95810    0.54543    1.000
    O62      O        0.25840    0.96624    0.65859    1.000
    O63      O        0.33035    0.06172    0.55099    1.000
    O64      O        0.37700    0.03301    0.69372    1.000
    N22      N        0.49808    0.88897    0.20263    1.000
    N23      N        0.49090    0.00093    0.18463    1.000
    N24      N        0.60456    0.08234    0.27453    1.000
    C29      C        0.43797    0.88603    0.16443    1.000
    C30      C        0.45477    0.94843    0.11303    1.000
    C31      C        0.52467    0.06833    0.15013    1.000
    C32      C        0.56437    0.10963    0.23623    1.000
    H92      H        0.51417    0.88223    0.14663    1.000
    H93      H        0.48407    0.85993    0.25503    1.000
    H94      H        0.46117    0.00053    0.22883    1.000
    H95      H        0.61157    0.08723    0.34103    1.000
    H96      H        0.64017    0.10343    0.24163    1.000
    H97      H        0.40627    0.87963    0.22383    1.000
    H98      H        0.42837    0.86013    0.11913    1.000
    H99      H        0.48247    0.95053    0.05763    1.000
    H100     H        0.41777    0.95583    0.08963    1.000
    H101     H        0.55367    0.07253    0.09053    1.000
    H102     H        0.49657    0.08603    0.13783    1.000
    H103     H        0.53607    0.10263    0.29033    1.000
    H104     H        0.59097    0.15753    0.20123    1.000
    Ga16     Ga       0.60064    0.02706    0.54669    1.000
    Co9      Co       0.06602    0.30628    0.78665    1.000
    Ga17     Ga       0.22644    0.31695    0.58211    1.000
    P17      P        0.15078    0.24791    0.78617    1.000
    P18      P        0.99350    0.33987    0.94392    1.000
    O65      O        0.17648    0.29954    0.70445    1.000
    O66      O        0.08678    0.24443    0.82295    1.000
    O67      O        0.20100    0.27523    0.87347    1.000
    O68      O        0.13900    0.18266    0.75587    1.000
    O69      O        0.00279    0.29144    0.87877    1.000
    O70      O        0.92506    0.29958    0.99193    1.000
    O71      O        0.99701    0.39506    0.88433    1.000
    O72      O        0.04366    0.36635    0.02706    1.000
    N25      N        0.16474    0.22231    0.53597    1.000
    N26      N        0.15756    0.33427    0.51797    1.000
    N27      N        0.27122    0.41568    0.60787    1.000
    C33      C        0.10463    0.21937    0.49777    1.000
    C34      C        0.12143    0.28177    0.44637    1.000
    C35      C        0.19133    0.40167    0.48347    1.000
    C36      C        0.23103    0.44297    0.56957    1.000
    H105     H        0.18083    0.21557    0.47997    1.000
    H106     H        0.15073    0.19327    0.58837    1.000
    H107     H        0.12783    0.33387    0.56217    1.000
    H108     H        0.27823    0.42057    0.67437    1.000
    H109     H        0.30683    0.43677    0.57497    1.000
    H110     H        0.07293    0.21297    0.55717    1.000
    H111     H        0.09503    0.19347    0.45247    1.000
    H112     H        0.14913    0.28387    0.39097    1.000
    H113     H        0.08443    0.28917    0.42297    1.000
    H114     H        0.22033    0.40587    0.42387    1.000
    H115     H        0.16323    0.41937    0.47117    1.000
    H116     H        0.20273    0.43597    0.62367    1.000
    H117     H        0.25763    0.49087    0.53457    1.000
    Ga18     Ga       0.26731    0.36039    0.88002    1.000
    Ga19     Ga       0.65028    0.75717    0.08456    1.000
    P19      P        0.58124    0.76379    0.88050    1.000
    P20      P        0.67320    0.01303    0.72275    1.000
    O73      O        0.63287    0.78972    0.96222    1.000
    O74      O        0.57776    0.82431    0.84372    1.000
    O75      O        0.60856    0.74089    0.79320    1.000
    O76      O        0.51599    0.71032    0.91080    1.000
    O77      O        0.62477    0.95531    0.78790    1.000
    O78      O        0.63291    0.04118    0.67474    1.000
    O79      O        0.72839    0.06471    0.78234    1.000
    O80      O        0.69968    0.98935    0.63961    1.000
    N28      N        0.55564    0.72423    0.13070    1.000
    N29      N        0.66760    0.84337    0.14870    1.000
    N30      N        0.74901    0.81112    0.05880    1.000
    C37      C        0.55270    0.78140    0.16890    1.000
    C38      C        0.61510    0.82700    0.22030    1.000
    C39      C        0.73500    0.87700    0.18320    1.000
    C40      C        0.77630    0.87860    0.09710    1.000
    H118     H        0.54890    0.70140    0.18670    1.000
    H119     H        0.52660    0.70920    0.07830    1.000
    H120     H        0.66720    0.87270    0.10450    1.000
    H121     H        0.75390    0.80900    0.99230    1.000
    H122     H        0.77010    0.79660    0.09170    1.000
    H123     H        0.54630    0.80670    0.10950    1.000
    H124     H        0.52680    0.76510    0.21420    1.000
    H125     H        0.61720    0.80140    0.27570    1.000
    H126     H        0.62250    0.87140    0.24370    1.000
    H127     H        0.73920    0.85220    0.24280    1.000
    H128     H        0.75270    0.92280    0.19550    1.000
    H129     H        0.76930    0.89990    0.04300    1.000
    H130     H        0.82420    0.89990    0.13210    1.000
    Ga20     Ga       0.31695    0.09050    0.41789    1.000
    P21      P        0.24791    0.09712    0.21383    1.000
    P22      P        0.33987    0.34636    0.05608    1.000
    O81      O        0.29954    0.12305    0.29555    1.000
    O82      O        0.24443    0.15764    0.17705    1.000
    O83      O        0.27523    0.07422    0.12653    1.000
    O84      O        0.18266    0.04365    0.24413    1.000
    O85      O        0.29144    0.28864    0.12123    1.000
    O86      O        0.29958    0.37451    0.00807    1.000
    O87      O        0.39506    0.39804    0.11567    1.000
    O88      O        0.36635    0.32268    0.97294    1.000
    N31      N        0.22231    0.05756    0.46403    1.000
    N32      N        0.33427    0.17670    0.48203    1.000
    N33      N        0.41568    0.14445    0.39213    1.000
    C41      C        0.21937    0.11473    0.50223    1.000
    C42      C        0.28177    0.16033    0.55363    1.000
    C43      C        0.40167    0.21033    0.51653    1.000
    C44      C        0.44297    0.21193    0.43043    1.000
    H131     H        0.21557    0.03473    0.52003    1.000
    H132     H        0.19327    0.04253    0.41163    1.000
    H133     H        0.33387    0.20603    0.43783    1.000
    H134     H        0.42057    0.14233    0.32563    1.000
    H135     H        0.43677    0.12993    0.42503    1.000
    H136     H        0.21297    0.14003    0.44283    1.000
    H137     H        0.19347    0.09843    0.54753    1.000
    H138     H        0.28387    0.13473    0.60903    1.000
    H139     H        0.28917    0.20473    0.57703    1.000
    H140     H        0.40587    0.18553    0.57613    1.000
    H141     H        0.41937    0.25613    0.52883    1.000
    H142     H        0.43597    0.23323    0.37633    1.000
    H143     H        0.49087    0.23323    0.46543    1.000
    Ga21     Ga       0.98361    0.42384    0.75123    1.000
    P23      P        0.91457    0.43046    0.54717    1.000
    P24      P        0.00653    0.67970    0.38942    1.000
    O89      O        0.96620    0.45639    0.62889    1.000
    O90      O        0.91109    0.49098    0.51039    1.000
    O91      O        0.94189    0.40756    0.45987    1.000
    O92      O        0.84932    0.37699    0.57747    1.000
    O93      O        0.95810    0.62198    0.45457    1.000
    O94      O        0.96624    0.70785    0.34141    1.000
    O95      O        0.06172    0.73138    0.44901    1.000
    O96      O        0.03301    0.65602    0.30628    1.000
    N34      N        0.88897    0.39090    0.79737    1.000
    N35      N        0.00093    0.51004    0.81537    1.000
    N36      N        0.08234    0.47779    0.72547    1.000
    C45      C        0.88603    0.44807    0.83557    1.000
    C46      C        0.94843    0.49367    0.88697    1.000
    C47      C        0.06833    0.54367    0.84987    1.000
    C48      C        0.10963    0.54527    0.76377    1.000
    H144     H        0.88223    0.36807    0.85337    1.000
    H145     H        0.85993    0.37587    0.74497    1.000
    H146     H        0.00053    0.53937    0.77117    1.000
    H147     H        0.08723    0.47567    0.65897    1.000
    H148     H        0.10343    0.46327    0.75837    1.000
    H149     H        0.87963    0.47337    0.77617    1.000
    H150     H        0.86013    0.43177    0.88087    1.000
    H151     H        0.95053    0.46807    0.94237    1.000
    H152     H        0.95583    0.53807    0.91037    1.000
    H153     H        0.07253    0.51887    0.90947    1.000
    H154     H        0.08603    0.58947    0.86217    1.000
    H155     H        0.10263    0.56657    0.70967    1.000
    H156     H        0.15753    0.56657    0.79877    1.000
    Ga22     Ga       0.24283    0.89311    0.08456    1.000
    P25      P        0.23621    0.81745    0.88050    1.000
    P26      P        0.98697    0.66017    0.72275    1.000
    O97      O        0.21028    0.84315    0.96222    1.000
    O98      O        0.17569    0.75345    0.84372    1.000
    O99      O        0.25911    0.86767    0.79320    1.000
    O100     O        0.28968    0.80567    0.91080    1.000
    O101     O        0.04469    0.66946    0.78790    1.000
    O102     O        0.95882    0.59173    0.67474    1.000
    O103     O        0.93529    0.66368    0.78234    1.000
    O104     O        0.01065    0.71033    0.63961    1.000
    N37      N        0.27577    0.83141    0.13070    1.000
    N38      N        0.15663    0.82423    0.14870    1.000
    N39      N        0.18888    0.93789    0.05880    1.000
    C49      C        0.21860    0.77130    0.16890    1.000
    C50      C        0.17300    0.78810    0.22030    1.000
    C51      C        0.12300    0.85800    0.18320    1.000
    C52      C        0.12140    0.89770    0.09710    1.000
    H157     H        0.29860    0.84750    0.18670    1.000
    H158     H        0.29080    0.81740    0.07830    1.000
    H159     H        0.12730    0.79450    0.10450    1.000
    H160     H        0.19100    0.94490    0.99230    1.000
    H161     H        0.20340    0.97350    0.09170    1.000
    H162     H        0.19330    0.73960    0.10950    1.000
    H163     H        0.23490    0.76170    0.21420    1.000
    H164     H        0.19860    0.81580    0.27570    1.000
    H165     H        0.12860    0.75110    0.24370    1.000
    H166     H        0.14780    0.88700    0.24280    1.000
    H167     H        0.07720    0.82990    0.19550    1.000
    H168     H        0.10010    0.86940    0.04300    1.000
    H169     H        0.10010    0.92430    0.13210    1.000
    Ga23     Ga       0.90950    0.22644    0.41789    1.000
    P27      P        0.90288    0.15078    0.21383    1.000
    P28      P        0.65364    0.99350    0.05608    1.000
    O105     O        0.87695    0.17648    0.29555    1.000
    O106     O        0.84236    0.08678    0.17705    1.000
    O107     O        0.92578    0.20100    0.12653    1.000
    O108     O        0.95635    0.13900    0.24413    1.000
    O109     O        0.71136    0.00279    0.12123    1.000
    O110     O        0.62549    0.92506    0.00807    1.000
    O111     O        0.60196    0.99701    0.11567    1.000
    O112     O        0.67732    0.04366    0.97294    1.000
    N40      N        0.94244    0.16474    0.46403    1.000
    N41      N        0.82330    0.15756    0.48203    1.000
    N42      N        0.85555    0.27122    0.39213    1.000
    C53      C        0.88527    0.10463    0.50223    1.000
    C54      C        0.83967    0.12143    0.55363    1.000
    C55      C        0.78967    0.19133    0.51653    1.000
    C56      C        0.78807    0.23103    0.43043    1.000
    H170     H        0.96527    0.18083    0.52003    1.000
    H171     H        0.95747    0.15073    0.41163    1.000
    H172     H        0.79397    0.12783    0.43783    1.000
    H173     H        0.85767    0.27823    0.32563    1.000
    H174     H        0.87007    0.30683    0.42503    1.000
    H175     H        0.85997    0.07293    0.44283    1.000
    H176     H        0.90157    0.09503    0.54753    1.000
    H177     H        0.86527    0.14913    0.60903    1.000
    H178     H        0.79527    0.08443    0.57703    1.000
    H179     H        0.81447    0.22033    0.57613    1.000
    H180     H        0.74387    0.16323    0.52883    1.000
    H181     H        0.76677    0.20273    0.37633    1.000
    H182     H        0.76677    0.25763    0.46543    1.000
    Ga24     Ga       0.57616    0.55978    0.75123    1.000
    P29      P        0.56954    0.48412    0.54717    1.000
    P30      P        0.32030    0.32684    0.38942    1.000
    O113     O        0.54361    0.50982    0.62889    1.000
    O114     O        0.50902    0.42012    0.51039    1.000
    O115     O        0.59244    0.53434    0.45987    1.000
    O116     O        0.62301    0.47234    0.57747    1.000
    O117     O        0.37802    0.33613    0.45457    1.000
    O118     O        0.29215    0.25840    0.34141    1.000
    O119     O        0.26862    0.33035    0.44901    1.000
    O120     O        0.34398    0.37700    0.30628    1.000
    N43      N        0.60910    0.49808    0.79737    1.000
    N44      N        0.48996    0.49090    0.81537    1.000
    N45      N        0.52221    0.60456    0.72547    1.000
    C57      C        0.55193    0.43797    0.83557    1.000
    C58      C        0.50633    0.45477    0.88697    1.000
    C59      C        0.45633    0.52467    0.84987    1.000
    C60      C        0.45473    0.56437    0.76377    1.000
    H183     H        0.63193    0.51417    0.85337    1.000
    H184     H        0.62413    0.48407    0.74497    1.000
    H185     H        0.46063    0.46117    0.77117    1.000
    H186     H        0.52433    0.61157    0.65897    1.000
    H187     H        0.53673    0.64017    0.75837    1.000
    H188     H        0.52663    0.40627    0.77617    1.000
    H189     H        0.56823    0.42837    0.88087    1.000
    H190     H        0.53193    0.48247    0.94237    1.000
    H191     H        0.46193    0.41777    0.91037    1.000
    H192     H        0.48113    0.55367    0.90947    1.000
    H193     H        0.41053    0.49657    0.86217    1.000
    H194     H        0.43343    0.53607    0.70967    1.000
    H195     H        0.43343    0.59097    0.79877    1.000
    Ga25     Ga       0.10689    0.34972    0.08456    1.000
    P31      P        0.18255    0.41876    0.88050    1.000
    P32      P        0.33983    0.32680    0.72275    1.000
    O121     O        0.15685    0.36713    0.96222    1.000
    O122     O        0.24655    0.42224    0.84372    1.000
    O123     O        0.13233    0.39144    0.79320    1.000
    O124     O        0.19433    0.48401    0.91080    1.000
    O125     O        0.33054    0.37523    0.78790    1.000
    O126     O        0.40827    0.36709    0.67474    1.000
    O127     O        0.33632    0.27161    0.78234    1.000
    O128     O        0.28967    0.30032    0.63961    1.000
    N46      N        0.16859    0.44436    0.13070    1.000
    N47      N        0.17577    0.33240    0.14870    1.000
    N48      N        0.06211    0.25099    0.05880    1.000
    C61      C        0.22870    0.44730    0.16890    1.000
    C62      C        0.21190    0.38490    0.22030    1.000
    C63      C        0.14200    0.26500    0.18320    1.000
    C64      C        0.10230    0.22370    0.09710    1.000
    H196     H        0.15250    0.45110    0.18670    1.000
    H197     H        0.18260    0.47340    0.07830    1.000
    H198     H        0.20550    0.33280    0.10450    1.000
    H199     H        0.05510    0.24610    0.99230    1.000
    H200     H        0.02650    0.22990    0.09170    1.000
    H201     H        0.26040    0.45370    0.10950    1.000
    H202     H        0.23830    0.47320    0.21420    1.000
    H203     H        0.18420    0.38280    0.27570    1.000
    H204     H        0.24890    0.37750    0.24370    1.000
    H205     H        0.11300    0.26080    0.24280    1.000
    H206     H        0.17010    0.24730    0.19550    1.000
    H207     H        0.13060    0.23070    0.04300    1.000
    H208     H        0.07570    0.17580    0.13210    1.000
    Ga26     Ga       0.77356    0.68305    0.41789    1.000
    P33      P        0.84922    0.75209    0.21383    1.000
    P34      P        0.00650    0.66013    0.05608    1.000
    O129     O        0.82352    0.70046    0.29555    1.000
    O130     O        0.91322    0.75557    0.17705    1.000
    O131     O        0.79900    0.72477    0.12653    1.000
    O132     O        0.86100    0.81734    0.24413    1.000
    O133     O        0.99721    0.70856    0.12123    1.000
    O134     O        0.07494    0.70042    0.00807    1.000
    O135     O        0.00299    0.60494    0.11567    1.000
    O136     O        0.95634    0.63365    0.97294    1.000
    N49      N        0.83526    0.77769    0.46403    1.000
    N50      N        0.84244    0.66573    0.48203    1.000
    N51      N        0.72878    0.58432    0.39213    1.000
    C65      C        0.89537    0.78063    0.50223    1.000
    C66      C        0.87857    0.71823    0.55363    1.000
    C67      C        0.80867    0.59833    0.51653    1.000
    C68      C        0.76897    0.55703    0.43043    1.000
    H209     H        0.81917    0.78443    0.52003    1.000
    H210     H        0.84927    0.80673    0.41163    1.000
    H211     H        0.87217    0.66613    0.43783    1.000
    H212     H        0.72177    0.57943    0.32563    1.000
    H213     H        0.69317    0.56323    0.42503    1.000
    H214     H        0.92707    0.78703    0.44283    1.000
    H215     H        0.90497    0.80653    0.54753    1.000
    H216     H        0.85087    0.71613    0.60903    1.000
    H217     H        0.91557    0.71083    0.57703    1.000
    H218     H        0.77967    0.59413    0.57613    1.000
    H219     H        0.83677    0.58063    0.52883    1.000
    H220     H        0.79727    0.56403    0.37633    1.000
    H221     H        0.74237    0.50913    0.46543    1.000
    Ga27     Ga       0.44022    0.01639    0.75123    1.000
    P35      P        0.51588    0.08543    0.54717    1.000
    P36      P        0.67316    0.99347    0.38942    1.000
    O137     O        0.49018    0.03380    0.62889    1.000
    O138     O        0.57988    0.08891    0.51039    1.000
    O139     O        0.46566    0.05811    0.45987    1.000
    O140     O        0.52766    0.15068    0.57747    1.000
    O141     O        0.66387    0.04190    0.45457    1.000
    O142     O        0.74160    0.03376    0.34141    1.000
    O143     O        0.66965    0.93828    0.44901    1.000
    O144     O        0.62300    0.96699    0.30628    1.000
    N52      N        0.50192    0.11103    0.79737    1.000
    N53      N        0.50910    0.99907    0.81537    1.000
    N54      N        0.39544    0.91766    0.72547    1.000
    C69      C        0.56203    0.11397    0.83557    1.000
    C70      C        0.54523    0.05157    0.88697    1.000
    C71      C        0.47533    0.93167    0.84987    1.000
    C72      C        0.43563    0.89037    0.76377    1.000
    H222     H        0.48583    0.11777    0.85337    1.000
    H223     H        0.51593    0.14007    0.74497    1.000
    H224     H        0.53883    0.99947    0.77117    1.000
    H225     H        0.38843    0.91277    0.65897    1.000
    H226     H        0.35983    0.89657    0.75837    1.000
    H227     H        0.59373    0.12037    0.77617    1.000
    H228     H        0.57163    0.13987    0.88087    1.000
    H229     H        0.51753    0.04947    0.94237    1.000
    H230     H        0.58223    0.04417    0.91037    1.000
    H231     H        0.44633    0.92747    0.90947    1.000
    H232     H        0.50343    0.91397    0.86217    1.000
    H233     H        0.46393    0.89737    0.70967    1.000
    H234     H        0.40903    0.84247    0.79877    1.000
