# CIF file generated by openbabel 3.1.0, see https://openbabel.org
data_I
_chemical_name_common 'image0'
_cell_length_a 7.145
_cell_length_b 7.145
_cell_length_c 13.369
_cell_angle_alpha 90
_cell_angle_beta 90
_cell_angle_gamma 90
_space_group_name_H-M_alt 'P 1'
_space_group_name_Hall 'P 1'
loop_
    _symmetry_equiv_pos_as_xyz
    x,y,z
loop_
    _atom_site_label
    _atom_site_type_symbol
    _atom_site_fract_x
    _atom_site_fract_y
    _atom_site_fract_z
    _atom_site_occupancy
    Pt1      Pt       0.00000    0.00000    0.50000    1.000
    Fe1      Fe       0.50000    0.50000    0.50000    1.000
    N1       N        0.50000    0.50000    0.64900    1.000
    C1       C        0.50000    0.50000    0.85790    1.000
    C2       C        0.50000    0.50000    0.96750    1.000
    N2       N        0.50000    0.50000    0.35100    1.000
    C3       C        0.50000    0.50000    0.14210    1.000
    C4       C        0.50000    0.50000    0.03250    1.000
    N3       N        0.30960    0.69040    0.50000    1.000
    C5       C        0.19600    0.80400    0.50000    1.000
    N4       N        0.69040    0.30960    0.50000    1.000
    C6       C        0.80400    0.19600    0.50000    1.000
    N5       N        0.30960    0.30960    0.50000    1.000
    C7       C        0.19600    0.19600    0.50000    1.000
    N6       N        0.69040    0.69040    0.50000    1.000
    C8       C        0.80400    0.80400    0.50000    1.000
    C9       C        0.50000    0.65600    0.70160    1.000
    C10      C        0.50000    0.64800    0.80560    1.000
    C11      C        0.50000    0.34400    0.70160    1.000
    C12      C        0.50000    0.35200    0.80560    1.000
    C13      C        0.34400    0.50000    0.70160    1.000
    C14      C        0.35200    0.50000    0.80560    1.000
    C15      C        0.65600    0.50000    0.70160    1.000
    C16      C        0.64800    0.50000    0.80560    1.000
    C17      C        0.50000    0.65600    0.29840    1.000
    C18      C        0.50000    0.64800    0.19440    1.000
    C19      C        0.50000    0.34400    0.29840    1.000
    C20      C        0.50000    0.35200    0.19440    1.000
    C21      C        0.65600    0.50000    0.29840    1.000
    C22      C        0.64800    0.50000    0.19440    1.000
    C23      C        0.34400    0.50000    0.29840    1.000
    C24      C        0.35200    0.50000    0.19440    1.000
