# CIF file generated by openbabel 3.1.0, see https://openbabel.org
data_I
_chemical_name_common 'image0'
_cell_length_a 13.8201
_cell_length_b 13.187
_cell_length_c 13.8527
_cell_angle_alpha 90
_cell_angle_beta 90.804
_cell_angle_gamma 90
_space_group_name_H-M_alt 'P 1'
_space_group_name_Hall 'P 1'
loop_
    _symmetry_equiv_pos_as_xyz
    x,y,z
loop_
    _atom_site_label
    _atom_site_type_symbol
    _atom_site_fract_x
    _atom_site_fract_y
    _atom_site_fract_z
    _atom_site_occupancy
    Al1      Al       0.12390    0.85900    0.22540    1.000
    Al2      Al       0.02500    0.74060    0.62360    1.000
    Co1      Co       0.12390    0.14100    0.72540    1.000
    Co2      Co       0.02500    0.25940    0.12360    1.000
    P1       P        0.02920    0.26070    0.89460    1.000
    P2       P        0.14470    0.62510    0.78060    1.000
    O1       O        0.06890    0.26030    0.99830    1.000
    O2       O        0.99110    0.36590    0.86960    1.000
    O3       O        0.12040    0.51790    0.74800    1.000
    O4       O        0.08000    0.65460    0.86350    1.000
    O5       O        0.08960    0.00480    0.75710    1.000
    O6       O        0.13320    0.70030    0.69840    1.000
    O7       O        0.00160    0.87570    0.65870    1.000
    O8       O        0.11320    0.23500    0.82840    1.000
    O9       O        0.24790    0.62720    0.81890    1.000
    O10      O        0.94860    0.18310    0.88500    1.000
    Al3      Al       0.62390    0.35900    0.22540    1.000
    Al4      Al       0.52500    0.24060    0.62360    1.000
    Co3      Co       0.62390    0.64100    0.72540    1.000
    Co4      Co       0.52500    0.75940    0.12360    1.000
    P3       P        0.52920    0.76070    0.89460    1.000
    P4       P        0.64470    0.12510    0.78060    1.000
    O11      O        0.56890    0.76030    0.99830    1.000
    O12      O        0.49110    0.86590    0.86960    1.000
    O13      O        0.62040    0.01790    0.74800    1.000
    O14      O        0.58000    0.15460    0.86350    1.000
    O15      O        0.58960    0.50480    0.75710    1.000
    O16      O        0.63320    0.20030    0.69840    1.000
    O17      O        0.50160    0.37570    0.65870    1.000
    O18      O        0.61320    0.73500    0.82840    1.000
    O19      O        0.74790    0.12720    0.81890    1.000
    O20      O        0.44860    0.68310    0.88500    1.000
    Al5      Al       0.87610    0.85900    0.27460    1.000
    Al6      Al       0.97500    0.74060    0.87640    1.000
    Co5      Co       0.87610    0.14100    0.77460    1.000
    Co6      Co       0.97500    0.25940    0.37640    1.000
    P5       P        0.97080    0.26070    0.60540    1.000
    P6       P        0.85530    0.62510    0.71940    1.000
    O21      O        0.93110    0.26030    0.50170    1.000
    O22      O        0.00890    0.36590    0.63040    1.000
    O23      O        0.87960    0.51790    0.75200    1.000
    O24      O        0.92000    0.65460    0.63650    1.000
    O25      O        0.91040    0.00480    0.74290    1.000
    O26      O        0.86680    0.70030    0.80160    1.000
    O27      O        0.99840    0.87570    0.84130    1.000
    O28      O        0.88680    0.23500    0.67160    1.000
    O29      O        0.75210    0.62720    0.68110    1.000
    O30      O        0.05140    0.18310    0.61500    1.000
    Al7      Al       0.37610    0.35900    0.27460    1.000
    Al8      Al       0.47500    0.24060    0.87640    1.000
    Co7      Co       0.37610    0.64100    0.77460    1.000
    Co8      Co       0.47500    0.75940    0.37640    1.000
    P7       P        0.47080    0.76070    0.60540    1.000
    P8       P        0.35530    0.12510    0.71940    1.000
    O31      O        0.43110    0.76030    0.50170    1.000
    O32      O        0.50890    0.86590    0.63040    1.000
    O33      O        0.37960    0.01790    0.75200    1.000
    O34      O        0.42000    0.15460    0.63650    1.000
    O35      O        0.41040    0.50480    0.74290    1.000
    O36      O        0.36680    0.20030    0.80160    1.000
    O37      O        0.49840    0.37570    0.84130    1.000
    O38      O        0.38680    0.73500    0.67160    1.000
    O39      O        0.25210    0.12720    0.68110    1.000
    O40      O        0.55140    0.68310    0.61500    1.000
    P9       P        0.97080    0.73930    0.10540    1.000
    P10      P        0.85530    0.37490    0.21940    1.000
    O41      O        0.93110    0.73970    0.00170    1.000
    O42      O        0.00890    0.63410    0.13040    1.000
    O43      O        0.87960    0.48210    0.25200    1.000
    O44      O        0.92000    0.34540    0.13650    1.000
    O45      O        0.91040    0.99520    0.24290    1.000
    O46      O        0.86680    0.29970    0.30160    1.000
    O47      O        0.99840    0.12430    0.34130    1.000
    O48      O        0.88680    0.76500    0.17160    1.000
    O49      O        0.75210    0.37280    0.18110    1.000
    O50      O        0.05140    0.81690    0.11500    1.000
    P11      P        0.47080    0.23930    0.10540    1.000
    P12      P        0.35530    0.87490    0.21940    1.000
    O51      O        0.43110    0.23970    0.00170    1.000
    O52      O        0.50890    0.13410    0.13040    1.000
    O53      O        0.37960    0.98210    0.25200    1.000
    O54      O        0.42000    0.84540    0.13650    1.000
    O55      O        0.41040    0.49520    0.24290    1.000
    O56      O        0.36680    0.79970    0.30160    1.000
    O57      O        0.49840    0.62430    0.34130    1.000
    O58      O        0.38680    0.26500    0.17160    1.000
    O59      O        0.25210    0.87280    0.18110    1.000
    O60      O        0.55140    0.31690    0.11500    1.000
    P13      P        0.02920    0.73930    0.39460    1.000
    P14      P        0.14470    0.37490    0.28060    1.000
    O61      O        0.06890    0.73970    0.49830    1.000
    O62      O        0.99110    0.63410    0.36960    1.000
    O63      O        0.12040    0.48210    0.24800    1.000
    O64      O        0.08000    0.34540    0.36350    1.000
    O65      O        0.08960    0.99520    0.25710    1.000
    O66      O        0.13320    0.29970    0.19840    1.000
    O67      O        0.00160    0.12430    0.15870    1.000
    O68      O        0.11320    0.76500    0.32840    1.000
    O69      O        0.24790    0.37280    0.31890    1.000
    O70      O        0.94860    0.81690    0.38500    1.000
    P15      P        0.52920    0.23930    0.39460    1.000
    P16      P        0.64470    0.87490    0.28060    1.000
    O71      O        0.56890    0.23970    0.49830    1.000
    O72      O        0.49110    0.13410    0.36960    1.000
    O73      O        0.62040    0.98210    0.24800    1.000
    O74      O        0.58000    0.84540    0.36350    1.000
    O75      O        0.58960    0.49520    0.25710    1.000
    O76      O        0.63320    0.79970    0.19840    1.000
    O77      O        0.50160    0.62430    0.15870    1.000
    O78      O        0.61320    0.26500    0.32840    1.000
    O79      O        0.74790    0.87280    0.31890    1.000
    O80      O        0.44860    0.31690    0.38500    1.000
    Co9      Co       0.00000    0.44220    0.75000    1.000
    P17      P        0.00000    0.94060    0.75000    1.000
    Co10     Co       0.50000    0.94220    0.75000    1.000
    P18      P        0.50000    0.44060    0.75000    1.000
    Co11     Co       0.00000    0.55780    0.25000    1.000
    P19      P        0.00000    0.05940    0.25000    1.000
    Co12     Co       0.50000    0.05780    0.25000    1.000
    P20      P        0.50000    0.55940    0.25000    1.000
