# CIF file generated by openbabel 3.1.0, see https://openbabel.org
data_I
_chemical_name_common 'image0'
_cell_length_a 14.081
_cell_length_b 14.413
_cell_length_c 16.42
_cell_angle_alpha 90
_cell_angle_beta 97.814
_cell_angle_gamma 90
_space_group_name_H-M_alt 'P 1'
_space_group_name_Hall 'P 1'
loop_
    _symmetry_equiv_pos_as_xyz
    x,y,z
loop_
    _atom_site_label
    _atom_site_type_symbol
    _atom_site_fract_x
    _atom_site_fract_y
    _atom_site_fract_z
    _atom_site_occupancy
    I1       I        0.10363    0.23849    0.54864    1.000
    Cu1      Cu       0.24771    0.16115    0.48069    1.000
    N1       N        0.18850    0.12090    0.36510    1.000
    C1       C        0.24470    0.09740    0.30960    1.000
    H1       H        0.31190    0.09580    0.32660    1.000
    C2       C        0.21170    0.07510    0.22850    1.000
    C3       C        0.11220    0.07830    0.20410    1.000
    H2       H        0.08580    0.06490    0.14900    1.000
    C4       C        0.05360    0.10140    0.26160    1.000
    C5       C        0.09430    0.12380    0.34030    1.000
    H3       H        0.05320    0.14210    0.37880    1.000
    N2       N        0.30340    0.94010    0.05950    1.000
    C6       C        0.24760    0.97620    0.11300    1.000
    H4       H        0.18400    0.95370    0.11100    1.000
    C7       C        0.27890    0.04440    0.17040    1.000
    C8       C        0.37050    0.07790    0.17260    1.000
    H5       H        0.39420    0.12470    0.21070    1.000
    C9       C        0.42740    0.04190    0.11830    1.000
    H6       H        0.49090    0.06410    0.11820    1.000
    C10      C        0.39140    0.97360    0.06420    1.000
    H7       H        0.43230    0.94890    0.02800    1.000
    I2       I        0.60363    0.73849    0.54864    1.000
    Cu2      Cu       0.74771    0.66115    0.48069    1.000
    N3       N        0.68850    0.62090    0.36510    1.000
    C11      C        0.74470    0.59740    0.30960    1.000
    H8       H        0.81190    0.59580    0.32660    1.000
    C12      C        0.71170    0.57510    0.22850    1.000
    C13      C        0.61220    0.57830    0.20410    1.000
    H9       H        0.58580    0.56490    0.14900    1.000
    C14      C        0.55360    0.60140    0.26160    1.000
    C15      C        0.59430    0.62380    0.34030    1.000
    H10      H        0.55320    0.64210    0.37880    1.000
    N4       N        0.80340    0.44010    0.05950    1.000
    C16      C        0.74760    0.47620    0.11300    1.000
    H11      H        0.68400    0.45370    0.11100    1.000
    C17      C        0.77890    0.54440    0.17040    1.000
    C18      C        0.87050    0.57790    0.17260    1.000
    H12      H        0.89420    0.62470    0.21070    1.000
    C19      C        0.92740    0.54190    0.11830    1.000
    H13      H        0.99090    0.56410    0.11820    1.000
    C20      C        0.89140    0.47360    0.06420    1.000
    H14      H        0.93230    0.44890    0.02800    1.000
    I3       I        0.89637    0.23849    0.95136    1.000
    Cu3      Cu       0.75229    0.16115    0.01931    1.000
    N5       N        0.81150    0.12090    0.13490    1.000
    C21      C        0.75530    0.09740    0.19040    1.000
    H15      H        0.68810    0.09580    0.17340    1.000
    C22      C        0.78830    0.07510    0.27150    1.000
    C23      C        0.88780    0.07830    0.29590    1.000
    H16      H        0.91420    0.06490    0.35100    1.000
    C24      C        0.94640    0.10140    0.23840    1.000
    C25      C        0.90570    0.12380    0.15970    1.000
    H17      H        0.94680    0.14210    0.12120    1.000
    N6       N        0.69660    0.94010    0.44050    1.000
    C26      C        0.75240    0.97620    0.38700    1.000
    H18      H        0.81600    0.95370    0.38900    1.000
    C27      C        0.72110    0.04440    0.32960    1.000
    C28      C        0.62950    0.07790    0.32740    1.000
    H19      H        0.60580    0.12470    0.28930    1.000
    C29      C        0.57260    0.04190    0.38170    1.000
    H20      H        0.50910    0.06410    0.38180    1.000
    C30      C        0.60860    0.97360    0.43580    1.000
    H21      H        0.56770    0.94890    0.47200    1.000
    I4       I        0.39637    0.73849    0.95136    1.000
    Cu4      Cu       0.25229    0.66115    0.01931    1.000
    N7       N        0.31150    0.62090    0.13490    1.000
    C31      C        0.25530    0.59740    0.19040    1.000
    H22      H        0.18810    0.59580    0.17340    1.000
    C32      C        0.28830    0.57510    0.27150    1.000
    C33      C        0.38780    0.57830    0.29590    1.000
    H23      H        0.41420    0.56490    0.35100    1.000
    C34      C        0.44640    0.60140    0.23840    1.000
    C35      C        0.40570    0.62380    0.15970    1.000
    H24      H        0.44680    0.64210    0.12120    1.000
    N8       N        0.19660    0.44010    0.44050    1.000
    C36      C        0.25240    0.47620    0.38700    1.000
    H25      H        0.31600    0.45370    0.38900    1.000
    C37      C        0.22110    0.54440    0.32960    1.000
    C38      C        0.12950    0.57790    0.32740    1.000
    H26      H        0.10580    0.62470    0.28930    1.000
    C39      C        0.07260    0.54190    0.38170    1.000
    H27      H        0.00910    0.56410    0.38180    1.000
    C40      C        0.10860    0.47360    0.43580    1.000
    H28      H        0.06770    0.44890    0.47200    1.000
    I5       I        0.89637    0.76151    0.45136    1.000
    Cu5      Cu       0.75229    0.83885    0.51931    1.000
    N9       N        0.81150    0.87910    0.63490    1.000
    C41      C        0.75530    0.90260    0.69040    1.000
    H29      H        0.68810    0.90420    0.67340    1.000
    C42      C        0.78830    0.92490    0.77150    1.000
    C43      C        0.88780    0.92170    0.79590    1.000
    H30      H        0.91420    0.93510    0.85100    1.000
    C44      C        0.94640    0.89860    0.73840    1.000
    C45      C        0.90570    0.87620    0.65970    1.000
    H31      H        0.94680    0.85790    0.62120    1.000
    N10      N        0.69660    0.05990    0.94050    1.000
    C46      C        0.75240    0.02380    0.88700    1.000
    H32      H        0.81600    0.04630    0.88900    1.000
    C47      C        0.72110    0.95560    0.82960    1.000
    C48      C        0.62950    0.92210    0.82740    1.000
    H33      H        0.60580    0.87530    0.78930    1.000
    C49      C        0.57260    0.95810    0.88170    1.000
    H34      H        0.50910    0.93590    0.88180    1.000
    C50      C        0.60860    0.02640    0.93580    1.000
    H35      H        0.56770    0.05110    0.97200    1.000
    I6       I        0.39637    0.26151    0.45136    1.000
    Cu6      Cu       0.25229    0.33885    0.51931    1.000
    N11      N        0.31150    0.37910    0.63490    1.000
    C51      C        0.25530    0.40260    0.69040    1.000
    H36      H        0.18810    0.40420    0.67340    1.000
    C52      C        0.28830    0.42490    0.77150    1.000
    C53      C        0.38780    0.42170    0.79590    1.000
    H37      H        0.41420    0.43510    0.85100    1.000
    C54      C        0.44640    0.39860    0.73840    1.000
    C55      C        0.40570    0.37620    0.65970    1.000
    H38      H        0.44680    0.35790    0.62120    1.000
    N12      N        0.19660    0.55990    0.94050    1.000
    C56      C        0.25240    0.52380    0.88700    1.000
    H39      H        0.31600    0.54630    0.88900    1.000
    C57      C        0.22110    0.45560    0.82960    1.000
    C58      C        0.12950    0.42210    0.82740    1.000
    H40      H        0.10580    0.37530    0.78930    1.000
    C59      C        0.07260    0.45810    0.88170    1.000
    H41      H        0.00910    0.43590    0.88180    1.000
    C60      C        0.10860    0.52640    0.93580    1.000
    H42      H        0.06770    0.55110    0.97200    1.000
    I7       I        0.10363    0.76151    0.04864    1.000
    Cu7      Cu       0.24771    0.83885    0.98069    1.000
    N13      N        0.18850    0.87910    0.86510    1.000
    C61      C        0.24470    0.90260    0.80960    1.000
    H43      H        0.31190    0.90420    0.82660    1.000
    C62      C        0.21170    0.92490    0.72850    1.000
    C63      C        0.11220    0.92170    0.70410    1.000
    H44      H        0.08580    0.93510    0.64900    1.000
    C64      C        0.05360    0.89860    0.76160    1.000
    C65      C        0.09430    0.87620    0.84030    1.000
    H45      H        0.05320    0.85790    0.87880    1.000
    N14      N        0.30340    0.05990    0.55950    1.000
    C66      C        0.24760    0.02380    0.61300    1.000
    H46      H        0.18400    0.04630    0.61100    1.000
    C67      C        0.27890    0.95560    0.67040    1.000
    C68      C        0.37050    0.92210    0.67260    1.000
    H47      H        0.39420    0.87530    0.71070    1.000
    C69      C        0.42740    0.95810    0.61830    1.000
    H48      H        0.49090    0.93590    0.61820    1.000
    C70      C        0.39140    0.02640    0.56420    1.000
    H49      H        0.43230    0.05110    0.52800    1.000
    I8       I        0.60363    0.26151    0.04864    1.000
    Cu8      Cu       0.74771    0.33885    0.98069    1.000
    N15      N        0.68850    0.37910    0.86510    1.000
    C71      C        0.74470    0.40260    0.80960    1.000
    H50      H        0.81190    0.40420    0.82660    1.000
    C72      C        0.71170    0.42490    0.72850    1.000
    C73      C        0.61220    0.42170    0.70410    1.000
    H51      H        0.58580    0.43510    0.64900    1.000
    C74      C        0.55360    0.39860    0.76160    1.000
    C75      C        0.59430    0.37620    0.84030    1.000
    H52      H        0.55320    0.35790    0.87880    1.000
    N16      N        0.80340    0.55990    0.55950    1.000
    C76      C        0.74760    0.52380    0.61300    1.000
    H53      H        0.68400    0.54630    0.61100    1.000
    C77      C        0.77890    0.45560    0.67040    1.000
    C78      C        0.87050    0.42210    0.67260    1.000
    H54      H        0.89420    0.37530    0.71070    1.000
    C79      C        0.92740    0.45810    0.61830    1.000
    H55      H        0.99090    0.43590    0.61820    1.000
    C80      C        0.89140    0.52640    0.56420    1.000
    H56      H        0.93230    0.55110    0.52800    1.000
