# CIF file generated by openbabel 3.1.0, see https://openbabel.org
data_I
_chemical_name_common 'image0'
_cell_length_a 17.8524
_cell_length_b 12.6177
_cell_length_c 11.1881
_cell_angle_alpha 90
_cell_angle_beta 94.8199
_cell_angle_gamma 90
_space_group_name_H-M_alt 'P 1'
_space_group_name_Hall 'P 1'
loop_
    _symmetry_equiv_pos_as_xyz
    x,y,z
loop_
    _atom_site_label
    _atom_site_type_symbol
    _atom_site_fract_x
    _atom_site_fract_y
    _atom_site_fract_z
    _atom_site_occupancy
    Co1      Co       0.42134    0.55927    0.50055    1.000
    N1       N        0.87396    0.93470    0.16240    1.000
    N2       N        0.91092    0.98310    0.25600    1.000
    N3       N        0.87723    0.97030    0.35630    1.000
    C1       C        0.81180    0.88760    0.20530    1.000
    C2       C        0.81480    0.91090    0.32810    1.000
    C3       C        0.75980    0.87350    0.40070    1.000
    H1       H        0.76220    0.88830    0.48330    1.000
    C4       C        0.70270    0.81480    0.34520    1.000
    H2       H        0.66510    0.78850    0.39110    1.000
    C5       C        0.69840    0.79200    0.22030    1.000
    C6       C        0.75300    0.82740    0.14910    1.000
    H3       H        0.75080    0.81180    0.06670    1.000
    C7       C        0.63300    0.72660    0.16830    1.000
    O1       O        0.52029    0.58060    0.43190    1.000
    H4       H        0.54500    0.64000    0.46700    1.000
    O2       O        0.63584    0.69030    0.06290    1.000
    O3       O        0.58098    0.71240    0.23500    1.000
    Co2      Co       0.92134    0.05927    0.50055    1.000
    N4       N        0.37396    0.43470    0.16240    1.000
    N5       N        0.41092    0.48310    0.25600    1.000
    N6       N        0.37723    0.47030    0.35630    1.000
    C8       C        0.31180    0.38760    0.20530    1.000
    C9       C        0.31480    0.41090    0.32810    1.000
    C10      C        0.25980    0.37350    0.40070    1.000
    H5       H        0.26220    0.38830    0.48330    1.000
    C11      C        0.20270    0.31480    0.34520    1.000
    H6       H        0.16510    0.28850    0.39110    1.000
    C12      C        0.19840    0.29200    0.22030    1.000
    C13      C        0.25300    0.32740    0.14910    1.000
    H7       H        0.25080    0.31180    0.06670    1.000
    C14      C        0.13300    0.22660    0.16830    1.000
    O4       O        0.02029    0.08060    0.43190    1.000
    H8       H        0.04500    0.14000    0.46700    1.000
    O5       O        0.13584    0.19030    0.06290    1.000
    O6       O        0.08098    0.21240    0.23500    1.000
    Co3      Co       0.57866    0.55927    0.99945    1.000
    N7       N        0.12604    0.93470    0.33760    1.000
    N8       N        0.08908    0.98310    0.24400    1.000
    N9       N        0.12277    0.97030    0.14370    1.000
    C15      C        0.18820    0.88760    0.29470    1.000
    C16      C        0.18520    0.91090    0.17190    1.000
    C17      C        0.24020    0.87350    0.09930    1.000
    H9       H        0.23780    0.88830    0.01670    1.000
    C18      C        0.29730    0.81480    0.15480    1.000
    H10      H        0.33490    0.78850    0.10890    1.000
    C19      C        0.30160    0.79200    0.27970    1.000
    C20      C        0.24700    0.82740    0.35090    1.000
    H11      H        0.24920    0.81180    0.43330    1.000
    C21      C        0.36700    0.72660    0.33170    1.000
    O7       O        0.47971    0.58060    0.06810    1.000
    H12      H        0.45500    0.64000    0.03300    1.000
    O8       O        0.36416    0.69030    0.43710    1.000
    O9       O        0.41902    0.71240    0.26500    1.000
    Co4      Co       0.07866    0.05927    0.99945    1.000
    N10      N        0.62604    0.43470    0.33760    1.000
    N11      N        0.58908    0.48310    0.24400    1.000
    N12      N        0.62277    0.47030    0.14370    1.000
    C22      C        0.68820    0.38760    0.29470    1.000
    C23      C        0.68520    0.41090    0.17190    1.000
    C24      C        0.74020    0.37350    0.09930    1.000
    H13      H        0.73780    0.38830    0.01670    1.000
    C25      C        0.79730    0.31480    0.15480    1.000
    H14      H        0.83490    0.28850    0.10890    1.000
    C26      C        0.80160    0.29200    0.27970    1.000
    C27      C        0.74700    0.32740    0.35090    1.000
    H15      H        0.74920    0.31180    0.43330    1.000
    C28      C        0.86700    0.22660    0.33170    1.000
    O10      O        0.97971    0.08060    0.06810    1.000
    H16      H        0.95500    0.14000    0.03300    1.000
    O11      O        0.86416    0.19030    0.43710    1.000
    O12      O        0.91902    0.21240    0.26500    1.000
    Co5      Co       0.57866    0.44073    0.49945    1.000
    N13      N        0.12604    0.06530    0.83760    1.000
    N14      N        0.08908    0.01690    0.74400    1.000
    N15      N        0.12277    0.02970    0.64370    1.000
    C29      C        0.18820    0.11240    0.79470    1.000
    C30      C        0.18520    0.08910    0.67190    1.000
    C31      C        0.24020    0.12650    0.59930    1.000
    H17      H        0.23780    0.11170    0.51670    1.000
    C32      C        0.29730    0.18520    0.65480    1.000
    H18      H        0.33490    0.21150    0.60890    1.000
    C33      C        0.30160    0.20800    0.77970    1.000
    C34      C        0.24700    0.17260    0.85090    1.000
    H19      H        0.24920    0.18820    0.93330    1.000
    C35      C        0.36700    0.27340    0.83170    1.000
    O13      O        0.47971    0.41940    0.56810    1.000
    H20      H        0.45500    0.36000    0.53300    1.000
    O14      O        0.36416    0.30970    0.93710    1.000
    O15      O        0.41902    0.28760    0.76500    1.000
    Co6      Co       0.07866    0.94073    0.49945    1.000
    N16      N        0.62604    0.56530    0.83760    1.000
    N17      N        0.58908    0.51690    0.74400    1.000
    N18      N        0.62277    0.52970    0.64370    1.000
    C36      C        0.68820    0.61240    0.79470    1.000
    C37      C        0.68520    0.58910    0.67190    1.000
    C38      C        0.74020    0.62650    0.59930    1.000
    H21      H        0.73780    0.61170    0.51670    1.000
    C39      C        0.79730    0.68520    0.65480    1.000
    H22      H        0.83490    0.71150    0.60890    1.000
    C40      C        0.80160    0.70800    0.77970    1.000
    C41      C        0.74700    0.67260    0.85090    1.000
    H23      H        0.74920    0.68820    0.93330    1.000
    C42      C        0.86700    0.77340    0.83170    1.000
    O16      O        0.97971    0.91940    0.56810    1.000
    H24      H        0.95500    0.86000    0.53300    1.000
    O17      O        0.86416    0.80970    0.93710    1.000
    O18      O        0.91902    0.78760    0.76500    1.000
    Co7      Co       0.42134    0.44073    0.00055    1.000
    N19      N        0.87396    0.06530    0.66240    1.000
    N20      N        0.91092    0.01690    0.75600    1.000
    N21      N        0.87723    0.02970    0.85630    1.000
    C43      C        0.81180    0.11240    0.70530    1.000
    C44      C        0.81480    0.08910    0.82810    1.000
    C45      C        0.75980    0.12650    0.90070    1.000
    H25      H        0.76220    0.11170    0.98330    1.000
    C46      C        0.70270    0.18520    0.84520    1.000
    H26      H        0.66510    0.21150    0.89110    1.000
    C47      C        0.69840    0.20800    0.72030    1.000
    C48      C        0.75300    0.17260    0.64910    1.000
    H27      H        0.75080    0.18820    0.56670    1.000
    C49      C        0.63300    0.27340    0.66830    1.000
    O19      O        0.52029    0.41940    0.93190    1.000
    H28      H        0.54500    0.36000    0.96700    1.000
    O20      O        0.63584    0.30970    0.56290    1.000
    O21      O        0.58098    0.28760    0.73500    1.000
    Co8      Co       0.92134    0.94073    0.00055    1.000
    N22      N        0.37396    0.56530    0.66240    1.000
    N23      N        0.41092    0.51690    0.75600    1.000
    N24      N        0.37723    0.52970    0.85630    1.000
    C50      C        0.31180    0.61240    0.70530    1.000
    C51      C        0.31480    0.58910    0.82810    1.000
    C52      C        0.25980    0.62650    0.90070    1.000
    H29      H        0.26220    0.61170    0.98330    1.000
    C53      C        0.20270    0.68520    0.84520    1.000
    H30      H        0.16510    0.71150    0.89110    1.000
    C54      C        0.19840    0.70800    0.72030    1.000
    C55      C        0.25300    0.67260    0.64910    1.000
    H31      H        0.25080    0.68820    0.56670    1.000
    C56      C        0.13300    0.77340    0.66830    1.000
    O22      O        0.02029    0.91940    0.93190    1.000
    H32      H        0.04500    0.86000    0.96700    1.000
    O23      O        0.13584    0.80970    0.56290    1.000
    O24      O        0.08098    0.78760    0.73500    1.000
    Co9      Co       0.50000    0.59577    0.25000    1.000
    Co10     Co       0.00000    0.09577    0.25000    1.000
    Co11     Co       0.50000    0.40423    0.75000    1.000
    Co12     Co       0.00000    0.90423    0.75000    1.000
