# CIF file generated by openbabel 3.1.0, see https://openbabel.org
data_I
_chemical_name_common 'image0'
_cell_length_a 8.3176
_cell_length_b 9.1539
_cell_length_c 12.6302
_cell_angle_alpha 90
_cell_angle_beta 90
_cell_angle_gamma 90
_space_group_name_H-M_alt 'P 1'
_space_group_name_Hall 'P 1'
loop_
    _symmetry_equiv_pos_as_xyz
    x,y,z
loop_
    _atom_site_label
    _atom_site_type_symbol
    _atom_site_fract_x
    _atom_site_fract_y
    _atom_site_fract_z
    _atom_site_occupancy
    V1       V        0.96867    0.21028    0.00223    1.000
    V2       V        0.73354    0.55464    0.89431    1.000
    P1       P        0.25581    0.06551    0.86639    1.000
    O1       O        0.93420    0.38190    0.91460    1.000
    O2       O        0.26450    0.94190    0.94850    1.000
    O3       O        0.09770    0.15400    0.87730    1.000
    O4       O        0.39990    0.16890    0.88110    1.000
    O5       O        0.25860    0.99680    0.75640    1.000
    O6       O        0.09820    0.11590    0.08180    1.000
    V3       V        0.53133    0.78972    0.50223    1.000
    V4       V        0.76646    0.44536    0.39431    1.000
    P2       P        0.24419    0.93449    0.36639    1.000
    O7       O        0.56580    0.61810    0.41460    1.000
    O8       O        0.23550    0.05810    0.44850    1.000
    O9       O        0.40230    0.84600    0.37730    1.000
    O10      O        0.10010    0.83110    0.38110    1.000
    O11      O        0.24140    0.00320    0.25640    1.000
    O12      O        0.40180    0.88410    0.58180    1.000
    V5       V        0.03133    0.71028    0.49777    1.000
    V6       V        0.26646    0.05464    0.60569    1.000
    P3       P        0.74419    0.56551    0.63361    1.000
    O13      O        0.06580    0.88190    0.58540    1.000
    O14      O        0.73550    0.44190    0.55150    1.000
    O15      O        0.90230    0.65400    0.62270    1.000
    O16      O        0.60010    0.66890    0.61890    1.000
    O17      O        0.74140    0.49680    0.74360    1.000
    O18      O        0.90180    0.61590    0.41820    1.000
    V7       V        0.46867    0.28972    0.99777    1.000
    V8       V        0.23354    0.94536    0.10569    1.000
    P4       P        0.75581    0.43449    0.13361    1.000
    O19      O        0.43420    0.11810    0.08540    1.000
    O20      O        0.76450    0.55810    0.05150    1.000
    O21      O        0.59770    0.34600    0.12270    1.000
    O22      O        0.89990    0.33110    0.11890    1.000
    O23      O        0.75860    0.50320    0.24360    1.000
    O24      O        0.59820    0.38410    0.91820    1.000
