# CIF file generated by openbabel 3.1.0, see https://openbabel.org
data_I
_chemical_name_common 'image0'
_cell_length_a 18.6011
_cell_length_b 18.6011
_cell_length_c 9.9
_cell_angle_alpha 90
_cell_angle_beta 90
_cell_angle_gamma 120
_space_group_name_H-M_alt 'P 1'
_space_group_name_Hall 'P 1'
loop_
    _symmetry_equiv_pos_as_xyz
    x,y,z
loop_
    _atom_site_label
    _atom_site_type_symbol
    _atom_site_fract_x
    _atom_site_fract_y
    _atom_site_fract_z
    _atom_site_occupancy
    C1       C        0.36806    0.21208    0.32720    1.000
    H1       H        0.39740    0.21160    0.25140    1.000
    N1       N        0.35624    0.27398    0.35810    1.000
    C2       C        0.03473    0.54541    0.66053    1.000
    H2       H        0.06407    0.54493    0.58473    1.000
    N2       N        0.02291    0.60731    0.69143    1.000
    C3       C        0.70139    0.87875    0.99387    1.000
    H3       H        0.73073    0.87827    0.91807    1.000
    N3       N        0.68957    0.94065    0.02477    1.000
    C4       C        0.78792    0.15598    0.32720    1.000
    H4       H        0.78840    0.18580    0.25140    1.000
    N4       N        0.72602    0.08226    0.35810    1.000
    C5       C        0.45459    0.48931    0.66053    1.000
    H5       H        0.45507    0.51913    0.58473    1.000
    N5       N        0.39269    0.41559    0.69143    1.000
    C6       C        0.12125    0.82265    0.99387    1.000
    H6       H        0.12173    0.85247    0.91807    1.000
    N6       N        0.05935    0.74893    0.02477    1.000
    C7       C        0.84402    0.63194    0.32720    1.000
    H7       H        0.81420    0.60260    0.25140    1.000
    N7       N        0.91774    0.64376    0.35810    1.000
    C8       C        0.51069    0.96527    0.66053    1.000
    H8       H        0.48087    0.93593    0.58473    1.000
    N8       N        0.58441    0.97709    0.69143    1.000
    C9       C        0.17735    0.29861    0.99387    1.000
    H9       H        0.14753    0.26927    0.91807    1.000
    N9       N        0.25107    0.31043    0.02477    1.000
    C10      C        0.21208    0.36806    0.17280    1.000
    H10      H        0.21160    0.39740    0.24860    1.000
    N10      N        0.27398    0.35624    0.14190    1.000
    C11      C        0.87875    0.70139    0.50613    1.000
    H11      H        0.87827    0.73073    0.58193    1.000
    N11      N        0.94065    0.68957    0.47523    1.000
    C12      C        0.54541    0.03473    0.83947    1.000
    H12      H        0.54493    0.06407    0.91527    1.000
    N12      N        0.60731    0.02291    0.80857    1.000
    C13      C        0.15598    0.78792    0.17280    1.000
    H13      H        0.18580    0.78840    0.24860    1.000
    N13      N        0.08226    0.72602    0.14190    1.000
    C14      C        0.82265    0.12125    0.50613    1.000
    H14      H        0.85247    0.12173    0.58193    1.000
    N14      N        0.74893    0.05935    0.47523    1.000
    C15      C        0.48931    0.45459    0.83947    1.000
    H15      H        0.51913    0.45507    0.91527    1.000
    N15      N        0.41559    0.39269    0.80857    1.000
    C16      C        0.63194    0.84402    0.17280    1.000
    H16      H        0.60260    0.81420    0.24860    1.000
    N16      N        0.64376    0.91774    0.14190    1.000
    C17      C        0.29861    0.17735    0.50613    1.000
    H17      H        0.26927    0.14753    0.58193    1.000
    N17      N        0.31043    0.25107    0.47523    1.000
    C18      C        0.96527    0.51069    0.83947    1.000
    H18      H        0.93593    0.48087    0.91527    1.000
    N18      N        0.97709    0.58441    0.80857    1.000
    C19      C        0.63194    0.78792    0.67280    1.000
    H19      H        0.60260    0.78840    0.74860    1.000
    N19      N        0.64376    0.72602    0.64190    1.000
    C20      C        0.29861    0.12125    0.00613    1.000
    H20      H        0.26927    0.12173    0.08193    1.000
    N20      N        0.31043    0.05935    0.97523    1.000
    C21      C        0.96527    0.45459    0.33947    1.000
    H21      H        0.93593    0.45507    0.41527    1.000
    N21      N        0.97709    0.39269    0.30857    1.000
    C22      C        0.21208    0.84402    0.67280    1.000
    H22      H        0.21160    0.81420    0.74860    1.000
    N22      N        0.27398    0.91774    0.64190    1.000
    C23      C        0.87875    0.17735    0.00613    1.000
    H23      H        0.87827    0.14753    0.08193    1.000
    N23      N        0.94065    0.25107    0.97523    1.000
    C24      C        0.54541    0.51069    0.33947    1.000
    H24      H        0.54493    0.48087    0.41527    1.000
    N24      N        0.60731    0.58441    0.30857    1.000
    C25      C        0.15598    0.36806    0.67280    1.000
    H25      H        0.18580    0.39740    0.74860    1.000
    N25      N        0.08226    0.35624    0.64190    1.000
    C26      C        0.82265    0.70139    0.00613    1.000
    H26      H        0.85247    0.73073    0.08193    1.000
    N26      N        0.74893    0.68957    0.97523    1.000
    C27      C        0.48931    0.03473    0.33947    1.000
    H27      H        0.51913    0.06407    0.41527    1.000
    N27      N        0.41559    0.02291    0.30857    1.000
    C28      C        0.78792    0.63194    0.82720    1.000
    H28      H        0.78840    0.60260    0.75140    1.000
    N28      N        0.72602    0.64376    0.85810    1.000
    C29      C        0.45459    0.96527    0.16053    1.000
    H29      H        0.45507    0.93593    0.08473    1.000
    N29      N        0.39269    0.97709    0.19143    1.000
    C30      C        0.12125    0.29861    0.49387    1.000
    H30      H        0.12173    0.26927    0.41807    1.000
    N30      N        0.05935    0.31043    0.52477    1.000
    C31      C        0.84402    0.21208    0.82720    1.000
    H31      H        0.81420    0.21160    0.75140    1.000
    N31      N        0.91774    0.27398    0.85810    1.000
    C32      C        0.51069    0.54541    0.16053    1.000
    H32      H        0.48087    0.54493    0.08473    1.000
    N32      N        0.58441    0.60731    0.19143    1.000
    C33      C        0.17735    0.87875    0.49387    1.000
    H33      H        0.14753    0.87827    0.41807    1.000
    N33      N        0.25107    0.94065    0.52477    1.000
    C34      C        0.36806    0.15598    0.82720    1.000
    H34      H        0.39740    0.18580    0.75140    1.000
    N34      N        0.35624    0.08226    0.85810    1.000
    C35      C        0.03473    0.48931    0.16053    1.000
    H35      H        0.06407    0.51913    0.08473    1.000
    N35      N        0.02291    0.41559    0.19143    1.000
    C36      C        0.70139    0.82265    0.49387    1.000
    H36      H        0.73073    0.85247    0.41807    1.000
    N36      N        0.68957    0.74893    0.52477    1.000
    Zn1      Zn       0.37485    0.37485    0.25000    1.000
    Zn2      Zn       0.04152    0.70818    0.58333    1.000
    Zn3      Zn       0.70818    0.04152    0.91667    1.000
    Zn4      Zn       0.62515    0.00000    0.25000    1.000
    Zn5      Zn       0.29182    0.33333    0.58333    1.000
    Zn6      Zn       0.95848    0.66667    0.91667    1.000
    Zn7      Zn       0.00000    0.62515    0.25000    1.000
    Zn8      Zn       0.66667    0.95848    0.58333    1.000
    Zn9      Zn       0.33333    0.29182    0.91667    1.000
    Zn10     Zn       0.62515    0.62515    0.75000    1.000
    Zn11     Zn       0.29182    0.95848    0.08333    1.000
    Zn12     Zn       0.95848    0.29182    0.41667    1.000
    Zn13     Zn       0.37485    0.00000    0.75000    1.000
    Zn14     Zn       0.04152    0.33333    0.08333    1.000
    Zn15     Zn       0.70818    0.66667    0.41667    1.000
    Zn16     Zn       0.00000    0.37485    0.75000    1.000
    Zn17     Zn       0.66667    0.70818    0.08333    1.000
    Zn18     Zn       0.33333    0.04152    0.41667    1.000
    F1       F        0.33333    0.40942    0.41667    1.000
    N37      N        0.33333    0.14935    0.41667    1.000
    F2       F        0.00000    0.74275    0.75000    1.000
    N38      N        0.00000    0.48268    0.75000    1.000
    F3       F        0.59058    0.92392    0.41667    1.000
    N39      N        0.85065    0.18399    0.41667    1.000
    F4       F        0.25725    0.25725    0.75000    1.000
    N40      N        0.51732    0.51732    0.75000    1.000
    F5       F        0.07608    0.66667    0.41667    1.000
    N41      N        0.81601    0.66667    0.41667    1.000
    F6       F        0.74275    0.00000    0.75000    1.000
    N42      N        0.48268    0.00000    0.75000    1.000
    F7       F        0.40942    0.33333    0.08333    1.000
    N43      N        0.14935    0.33333    0.08333    1.000
    F8       F        0.92392    0.59058    0.08333    1.000
    N44      N        0.18399    0.85065    0.08333    1.000
    F9       F        0.66667    0.07608    0.08333    1.000
    N45      N        0.66667    0.81601    0.08333    1.000
    F10      F        0.66667    0.59058    0.58333    1.000
    N46      N        0.66667    0.85065    0.58333    1.000
    F11      F        0.40942    0.07608    0.58333    1.000
    N47      N        0.14935    0.81601    0.58333    1.000
    F12      F        0.92392    0.33333    0.58333    1.000
    N48      N        0.18399    0.33333    0.58333    1.000
    F13      F        0.59058    0.66667    0.91667    1.000
    N49      N        0.85065    0.66667    0.91667    1.000
    F14      F        0.25725    0.00000    0.25000    1.000
    N50      N        0.51732    0.00000    0.25000    1.000
    F15      F        0.07608    0.40942    0.91667    1.000
    N51      N        0.81601    0.14935    0.91667    1.000
    F16      F        0.74275    0.74275    0.25000    1.000
    N52      N        0.48268    0.48268    0.25000    1.000
    F17      F        0.33333    0.92392    0.91667    1.000
    N53      N        0.33333    0.18399    0.91667    1.000
    F18      F        0.00000    0.25725    0.25000    1.000
    N54      N        0.00000    0.51732    0.25000    1.000
