# CIF file generated by openbabel 3.1.0, see https://openbabel.org
data_I
_chemical_name_common 'image0'
_cell_length_a 8.7632
_cell_length_b 8.7632
_cell_length_c 18.8197
_cell_angle_alpha 90
_cell_angle_beta 90
_cell_angle_gamma 120
_space_group_name_H-M_alt 'P 1'
_space_group_name_Hall 'P 1'
loop_
    _symmetry_equiv_pos_as_xyz
    x,y,z
loop_
    _atom_site_label
    _atom_site_type_symbol
    _atom_site_fract_x
    _atom_site_fract_y
    _atom_site_fract_z
    _atom_site_occupancy
    Fe1      Fe       0.66667    0.33333    0.33333    1.000
    Fe2      Fe       0.33333    0.66667    0.66667    1.000
    Fe3      Fe       0.00000    0.00000    0.00000    1.000
    K1       K        0.00000    0.00000    0.50000    1.000
    K2       K        0.66667    0.33333    0.83333    1.000
    K3       K        0.33333    0.66667    0.16667    1.000
    N1       N        0.83660    0.16340    0.42360    1.000
    C1       C        0.77320    0.22680    0.39120    1.000
    N2       N        0.50327    0.49673    0.75693    1.000
    C2       C        0.43987    0.56013    0.72453    1.000
    N3       N        0.16993    0.83007    0.09027    1.000
    C3       C        0.10653    0.89347    0.05787    1.000
    N4       N        0.83660    0.67320    0.42360    1.000
    C4       C        0.77320    0.54640    0.39120    1.000
    N5       N        0.50327    0.00653    0.75693    1.000
    C5       C        0.43987    0.87973    0.72453    1.000
    N6       N        0.16993    0.33987    0.09027    1.000
    C6       C        0.10653    0.21307    0.05787    1.000
    N7       N        0.32680    0.16340    0.42360    1.000
    C7       C        0.45360    0.22680    0.39120    1.000
    N8       N        0.99347    0.49673    0.75693    1.000
    C8       C        0.12027    0.56013    0.72453    1.000
    N9       N        0.66013    0.83007    0.09027    1.000
    C9       C        0.78693    0.89347    0.05787    1.000
    N10      N        0.16340    0.83660    0.57640    1.000
    C10      C        0.22680    0.77320    0.60880    1.000
    N11      N        0.83007    0.16993    0.90973    1.000
    C11      C        0.89347    0.10653    0.94213    1.000
    N12      N        0.49673    0.50327    0.24307    1.000
    C12      C        0.56013    0.43987    0.27547    1.000
    N13      N        0.67320    0.83660    0.57640    1.000
    C13      C        0.54640    0.77320    0.60880    1.000
    N14      N        0.33987    0.16993    0.90973    1.000
    C14      C        0.21307    0.10653    0.94213    1.000
    N15      N        0.00653    0.50327    0.24307    1.000
    C15      C        0.87973    0.43987    0.27547    1.000
    N16      N        0.16340    0.32680    0.57640    1.000
    C16      C        0.22680    0.45360    0.60880    1.000
    N17      N        0.83007    0.66013    0.90973    1.000
    C17      C        0.89347    0.78693    0.94213    1.000
    N18      N        0.49673    0.99347    0.24307    1.000
    C18      C        0.56013    0.12027    0.27547    1.000
