# CIF file generated by openbabel 3.1.0, see https://openbabel.org
data_I
_chemical_name_common 'image0'
_cell_length_a 14.3263
_cell_length_b 25.7839
_cell_length_c 8.1185
_cell_angle_alpha 90
_cell_angle_beta 101.598
_cell_angle_gamma 90
_space_group_name_H-M_alt 'P 1'
_space_group_name_Hall 'P 1'
loop_
    _symmetry_equiv_pos_as_xyz
    x,y,z
loop_
    _atom_site_label
    _atom_site_type_symbol
    _atom_site_fract_x
    _atom_site_fract_y
    _atom_site_fract_z
    _atom_site_occupancy
    Zn1      Zn       0.52545    0.51517    0.95410    1.000
    Zn2      Zn       0.66635    0.68944    0.74038    1.000
    Zn3      Zn       0.38592    0.68630    0.20223    1.000
    P1       P        0.69762    0.77067    0.45900    1.000
    P2       P        0.63855    0.56812    0.69149    1.000
    P3       P        0.40920    0.56301    0.21261    1.000
    O1       O        0.64750    0.74203    0.57170    1.000
    O2       O        0.76890    0.80933    0.53320    1.000
    O3       O        0.73400    0.72780    0.35400    1.000
    O4       O        0.56120    0.56321    0.79260    1.000
    O5       O        0.62900    0.52979    0.54710    1.000
    O6       O        0.64080    0.62309    0.62470    1.000
    O7       O        0.49210    0.56097    0.12230    1.000
    O8       O        0.41330    0.52239    0.34540    1.000
    O9       O        0.39990    0.61583    0.28550    1.000
    H1       H        0.63610    0.80190    0.34240    1.000
    H2       H        0.73070    0.55920    0.84080    1.000
    H3       H        0.33270    0.56490    0.11980    1.000
    P4       P        0.88140    0.71567    0.91440    1.000
    O10      O        0.90530    0.69960    0.09890    1.000
    O11      O        0.87290    0.77677    0.90230    1.000
    O12      O        0.79440    0.68933    0.85880    1.000
    H4       H        0.96080    0.70830    0.86840    1.000
    P5       P        0.52150    0.72796    0.96800    1.000
    O13      O        0.49880    0.70620    0.12380    1.000
    O14      O        0.56300    0.69460    0.85400    1.000
    H5       H        0.56500    0.77860    0.99800    1.000
    O15      O        0.42110    0.73490    0.83220    1.000
    O16      O        0.59500    0.69660    0.92400    1.000
    O17      O        0.75600    0.73900    0.35300    1.000
    O18      O        0.97400    0.72560    0.42800    1.000
    O19      O        0.85510    0.73680    0.16480    1.000
    P6       P        0.86230    0.72870    0.98480    1.000
    Zn4      Zn       0.02545    0.01517    0.95410    1.000
    Zn5      Zn       0.16635    0.18944    0.74038    1.000
    Zn6      Zn       0.88592    0.18630    0.20223    1.000
    P7       P        0.19762    0.27067    0.45900    1.000
    P8       P        0.13855    0.06812    0.69149    1.000
    P9       P        0.90920    0.06301    0.21261    1.000
    O20      O        0.14750    0.24203    0.57170    1.000
    O21      O        0.26890    0.30933    0.53320    1.000
    O22      O        0.23400    0.22780    0.35400    1.000
    O23      O        0.06120    0.06321    0.79260    1.000
    O24      O        0.12900    0.02979    0.54710    1.000
    O25      O        0.14080    0.12309    0.62470    1.000
    O26      O        0.99210    0.06097    0.12230    1.000
    O27      O        0.91330    0.02239    0.34540    1.000
    O28      O        0.89990    0.11583    0.28550    1.000
    H6       H        0.13610    0.30190    0.34240    1.000
    H7       H        0.23070    0.05920    0.84080    1.000
    H8       H        0.83270    0.06490    0.11980    1.000
    P10      P        0.38140    0.21567    0.91440    1.000
    O29      O        0.40530    0.19960    0.09890    1.000
    O30      O        0.37290    0.27677    0.90230    1.000
    O31      O        0.29440    0.18933    0.85880    1.000
    H9       H        0.46080    0.20830    0.86840    1.000
    P11      P        0.02150    0.22796    0.96800    1.000
    O32      O        0.99880    0.20620    0.12380    1.000
    O33      O        0.06300    0.19460    0.85400    1.000
    H10      H        0.06500    0.27860    0.99800    1.000
    O34      O        0.92110    0.23490    0.83220    1.000
    O35      O        0.09500    0.19660    0.92400    1.000
    O36      O        0.25600    0.23900    0.35300    1.000
    O37      O        0.47400    0.22560    0.42800    1.000
    O38      O        0.35510    0.23680    0.16480    1.000
    P12      P        0.36230    0.22870    0.98480    1.000
    Zn7      Zn       0.52545    0.48483    0.45410    1.000
    Zn8      Zn       0.66635    0.31056    0.24038    1.000
    Zn9      Zn       0.38592    0.31370    0.70223    1.000
    P13      P        0.69762    0.22933    0.95900    1.000
    P14      P        0.63855    0.43188    0.19149    1.000
    P15      P        0.40920    0.43699    0.71261    1.000
    O39      O        0.64750    0.25797    0.07170    1.000
    O40      O        0.76890    0.19067    0.03320    1.000
    O41      O        0.73400    0.27220    0.85400    1.000
    O42      O        0.56120    0.43679    0.29260    1.000
    O43      O        0.62900    0.47021    0.04710    1.000
    O44      O        0.64080    0.37691    0.12470    1.000
    O45      O        0.49210    0.43903    0.62230    1.000
    O46      O        0.41330    0.47761    0.84540    1.000
    O47      O        0.39990    0.38417    0.78550    1.000
    H11      H        0.63610    0.19810    0.84240    1.000
    H12      H        0.73070    0.44080    0.34080    1.000
    H13      H        0.33270    0.43510    0.61980    1.000
    P16      P        0.88140    0.28433    0.41440    1.000
    O48      O        0.90530    0.30040    0.59890    1.000
    O49      O        0.87290    0.22323    0.40230    1.000
    O50      O        0.79440    0.31067    0.35880    1.000
    H14      H        0.96080    0.29170    0.36840    1.000
    P17      P        0.52150    0.27204    0.46800    1.000
    O51      O        0.49880    0.29380    0.62380    1.000
    O52      O        0.56300    0.30540    0.35400    1.000
    H15      H        0.56500    0.22140    0.49800    1.000
    O53      O        0.42110    0.26510    0.33220    1.000
    O54      O        0.59500    0.30340    0.42400    1.000
    O55      O        0.75600    0.26100    0.85300    1.000
    O56      O        0.97400    0.27440    0.92800    1.000
    O57      O        0.85510    0.26320    0.66480    1.000
    P18      P        0.86230    0.27130    0.48480    1.000
    Zn10     Zn       0.02545    0.98483    0.45410    1.000
    Zn11     Zn       0.16635    0.81056    0.24038    1.000
    Zn12     Zn       0.88592    0.81370    0.70223    1.000
    P19      P        0.19762    0.72933    0.95900    1.000
    P20      P        0.13855    0.93188    0.19149    1.000
    P21      P        0.90920    0.93699    0.71261    1.000
    O58      O        0.14750    0.75797    0.07170    1.000
    O59      O        0.26890    0.69067    0.03320    1.000
    O60      O        0.23400    0.77220    0.85400    1.000
    O61      O        0.06120    0.93679    0.29260    1.000
    O62      O        0.12900    0.97021    0.04710    1.000
    O63      O        0.14080    0.87691    0.12470    1.000
    O64      O        0.99210    0.93903    0.62230    1.000
    O65      O        0.91330    0.97761    0.84540    1.000
    O66      O        0.89990    0.88417    0.78550    1.000
    H16      H        0.13610    0.69810    0.84240    1.000
    H17      H        0.23070    0.94080    0.34080    1.000
    H18      H        0.83270    0.93510    0.61980    1.000
    P22      P        0.38140    0.78433    0.41440    1.000
    O67      O        0.40530    0.80040    0.59890    1.000
    O68      O        0.37290    0.72323    0.40230    1.000
    O69      O        0.29440    0.81067    0.35880    1.000
    H19      H        0.46080    0.79170    0.36840    1.000
    P23      P        0.02150    0.77204    0.46800    1.000
    O70      O        0.99880    0.79380    0.62380    1.000
    O71      O        0.06300    0.80540    0.35400    1.000
    H20      H        0.06500    0.72140    0.49800    1.000
    O72      O        0.92110    0.76510    0.33220    1.000
    O73      O        0.09500    0.80340    0.42400    1.000
    O74      O        0.25600    0.76100    0.85300    1.000
    O75      O        0.47400    0.77440    0.92800    1.000
    O76      O        0.35510    0.76320    0.66480    1.000
    P24      P        0.36230    0.77130    0.48480    1.000
