# CIF file generated by openbabel 3.1.0, see https://openbabel.org
data_I
_chemical_name_common 'image0'
_cell_length_a 23.9937
_cell_length_b 23.9937
_cell_length_c 12.8101
_cell_angle_alpha 90
_cell_angle_beta 90
_cell_angle_gamma 120
_space_group_name_H-M_alt 'P 1'
_space_group_name_Hall 'P 1'
loop_
    _symmetry_equiv_pos_as_xyz
    x,y,z
loop_
    _atom_site_label
    _atom_site_type_symbol
    _atom_site_fract_x
    _atom_site_fract_y
    _atom_site_fract_z
    _atom_site_occupancy
    O1       O        0.28080    0.58220    0.31330    1.000
    N1       N        0.21820    0.54490    0.29440    1.000
    C1       C        0.19280    0.48080    0.29110    1.000
    H1       H        0.21910    0.46310    0.30290    1.000
    C2       C        0.12800    0.44050    0.27020    1.000
    H2       H        0.11160    0.39630    0.26520    1.000
    C3       C        0.08650    0.46570    0.25660    1.000
    C4       C        0.11650    0.53260    0.26610    1.000
    H3       H        0.09080    0.55140    0.26190    1.000
    C5       C        0.18240    0.57300    0.28150    1.000
    H4       H        0.20080    0.61750    0.28270    1.000
    C6       C        0.02150    0.42890    0.20270    1.000
    C7       C        0.01860    0.42560    0.29980    1.000
    O2       O        0.94747    0.91553    0.64663    1.000
    N2       N        0.88487    0.87823    0.62773    1.000
    C8       C        0.85947    0.81413    0.62443    1.000
    H5       H        0.88577    0.79643    0.63623    1.000
    C9       C        0.79467    0.77383    0.60353    1.000
    H6       H        0.77827    0.72963    0.59853    1.000
    C10      C        0.75317    0.79903    0.58993    1.000
    C11      C        0.78317    0.86593    0.59943    1.000
    H7       H        0.75747    0.88473    0.59523    1.000
    C12      C        0.84907    0.90633    0.61483    1.000
    H8       H        0.86747    0.95083    0.61603    1.000
    C13      C        0.68817    0.76223    0.53603    1.000
    C14      C        0.68527    0.75893    0.63313    1.000
    O3       O        0.61413    0.24887    0.97997    1.000
    N3       N        0.55153    0.21157    0.96107    1.000
    C15      C        0.52613    0.14747    0.95777    1.000
    H9       H        0.55243    0.12977    0.96957    1.000
    C16      C        0.46133    0.10717    0.93687    1.000
    H10      H        0.44493    0.06297    0.93187    1.000
    C17      C        0.41983    0.13237    0.92327    1.000
    C18      C        0.44983    0.19927    0.93277    1.000
    H11      H        0.42413    0.21807    0.92857    1.000
    C19      C        0.51573    0.23967    0.94817    1.000
    H12      H        0.53413    0.28417    0.94937    1.000
    C20      C        0.35483    0.09557    0.86937    1.000
    C21      C        0.35193    0.09227    0.96647    1.000
    O4       O        0.41780    0.69860    0.31330    1.000
    N4       N        0.45510    0.67330    0.29440    1.000
    C22      C        0.51920    0.71200    0.29110    1.000
    H13      H        0.53690    0.75600    0.30290    1.000
    C23      C        0.55950    0.68750    0.27020    1.000
    H14      H        0.60370    0.71530    0.26520    1.000
    C24      C        0.53430    0.62080    0.25660    1.000
    C25      C        0.46740    0.58390    0.26610    1.000
    H15      H        0.44860    0.53940    0.26190    1.000
    C26      C        0.42700    0.60940    0.28150    1.000
    H16      H        0.38250    0.58330    0.28270    1.000
    C27      C        0.57110    0.59260    0.20270    1.000
    C28      C        0.57440    0.59300    0.29980    1.000
    O5       O        0.08447    0.03193    0.64663    1.000
    N5       N        0.12177    0.00663    0.62773    1.000
    C29      C        0.18587    0.04533    0.62443    1.000
    H17      H        0.20357    0.08933    0.63623    1.000
    C30      C        0.22617    0.02083    0.60353    1.000
    H18      H        0.27037    0.04863    0.59853    1.000
    C31      C        0.20097    0.95413    0.58993    1.000
    C32      C        0.13407    0.91723    0.59943    1.000
    H19      H        0.11527    0.87273    0.59523    1.000
    C33      C        0.09367    0.94273    0.61483    1.000
    H20      H        0.04917    0.91663    0.61603    1.000
    C34      C        0.23777    0.92593    0.53603    1.000
    C35      C        0.24107    0.92633    0.63313    1.000
    O6       O        0.75113    0.36527    0.97997    1.000
    N6       N        0.78843    0.33997    0.96107    1.000
    C36      C        0.85253    0.37867    0.95777    1.000
    H21      H        0.87023    0.42267    0.96957    1.000
    C37      C        0.89283    0.35417    0.93687    1.000
    H22      H        0.93703    0.38197    0.93187    1.000
    C38      C        0.86763    0.28747    0.92327    1.000
    C39      C        0.80073    0.25057    0.93277    1.000
    H23      H        0.78193    0.20607    0.92857    1.000
    C40      C        0.76033    0.27607    0.94817    1.000
    H24      H        0.71583    0.24997    0.94937    1.000
    C41      C        0.90443    0.25927    0.86937    1.000
    C42      C        0.90773    0.25967    0.96647    1.000
    O7       O        0.30140    0.71920    0.31330    1.000
    N7       N        0.32670    0.78180    0.29440    1.000
    C43      C        0.28800    0.80720    0.29110    1.000
    H25      H        0.24400    0.78090    0.30290    1.000
    C44      C        0.31250    0.87200    0.27020    1.000
    H26      H        0.28470    0.88840    0.26520    1.000
    C45      C        0.37920    0.91350    0.25660    1.000
    C46      C        0.41610    0.88350    0.26610    1.000
    H27      H        0.46060    0.90920    0.26190    1.000
    C47      C        0.39060    0.81760    0.28150    1.000
    H28      H        0.41670    0.79920    0.28270    1.000
    C48      C        0.40740    0.97850    0.20270    1.000
    C49      C        0.40700    0.98140    0.29980    1.000
    O8       O        0.96807    0.05253    0.64663    1.000
    N8       N        0.99337    0.11513    0.62773    1.000
    C50      C        0.95467    0.14053    0.62443    1.000
    H29      H        0.91067    0.11423    0.63623    1.000
    C51      C        0.97917    0.20533    0.60353    1.000
    H30      H        0.95137    0.22173    0.59853    1.000
    C52      C        0.04587    0.24683    0.58993    1.000
    C53      C        0.08277    0.21683    0.59943    1.000
    H31      H        0.12727    0.24253    0.59523    1.000
    C54      C        0.05727    0.15093    0.61483    1.000
    H32      H        0.08337    0.13253    0.61603    1.000
    C55      C        0.07407    0.31183    0.53603    1.000
    C56      C        0.07367    0.31473    0.63313    1.000
    O9       O        0.63473    0.38587    0.97997    1.000
    N9       N        0.66003    0.44847    0.96107    1.000
    C57      C        0.62133    0.47387    0.95777    1.000
    H33      H        0.57733    0.44757    0.96957    1.000
    C58      C        0.64583    0.53867    0.93687    1.000
    H34      H        0.61803    0.55507    0.93187    1.000
    C59      C        0.71253    0.58017    0.92327    1.000
    C60      C        0.74943    0.55017    0.93277    1.000
    H35      H        0.79393    0.57587    0.92857    1.000
    C61      C        0.72393    0.48427    0.94817    1.000
    H36      H        0.75003    0.46587    0.94937    1.000
    C62      C        0.74073    0.64517    0.86937    1.000
    C63      C        0.74033    0.64807    0.96647    1.000
    O10      O        0.58220    0.28080    0.18670    1.000
    N10      N        0.54490    0.21820    0.20560    1.000
    C64      C        0.48080    0.19280    0.20890    1.000
    H37      H        0.46310    0.21910    0.19710    1.000
    C65      C        0.44050    0.12800    0.22980    1.000
    H38      H        0.39630    0.11160    0.23480    1.000
    C66      C        0.46570    0.08650    0.24340    1.000
    C67      C        0.53260    0.11650    0.23390    1.000
    H39      H        0.55140    0.09080    0.23810    1.000
    C68      C        0.57300    0.18240    0.21850    1.000
    H40      H        0.61750    0.20080    0.21730    1.000
    C69      C        0.42890    0.02150    0.29730    1.000
    C70      C        0.42560    0.01860    0.20020    1.000
    O11      O        0.24887    0.61413    0.52003    1.000
    N11      N        0.21157    0.55153    0.53893    1.000
    C71      C        0.14747    0.52613    0.54223    1.000
    H41      H        0.12977    0.55243    0.53043    1.000
    C72      C        0.10717    0.46133    0.56313    1.000
    H42      H        0.06297    0.44493    0.56813    1.000
    C73      C        0.13237    0.41983    0.57673    1.000
    C74      C        0.19927    0.44983    0.56723    1.000
    H43      H        0.21807    0.42413    0.57143    1.000
    C75      C        0.23967    0.51573    0.55183    1.000
    H44      H        0.28417    0.53413    0.55063    1.000
    C76      C        0.09557    0.35483    0.63063    1.000
    C77      C        0.09227    0.35193    0.53353    1.000
    O12      O        0.91553    0.94747    0.85337    1.000
    N12      N        0.87823    0.88487    0.87227    1.000
    C78      C        0.81413    0.85947    0.87557    1.000
    H45      H        0.79643    0.88577    0.86377    1.000
    C79      C        0.77383    0.79467    0.89647    1.000
    H46      H        0.72963    0.77827    0.90147    1.000
    C80      C        0.79903    0.75317    0.91007    1.000
    C81      C        0.86593    0.78317    0.90057    1.000
    H47      H        0.88473    0.75747    0.90477    1.000
    C82      C        0.90633    0.84907    0.88517    1.000
    H48      H        0.95083    0.86747    0.88397    1.000
    C83      C        0.76223    0.68817    0.96397    1.000
    C84      C        0.75893    0.68527    0.86687    1.000
    O13      O        0.69860    0.41780    0.18670    1.000
    N13      N        0.67330    0.45510    0.20560    1.000
    C85      C        0.71200    0.51920    0.20890    1.000
    H49      H        0.75600    0.53690    0.19710    1.000
    C86      C        0.68750    0.55950    0.22980    1.000
    H50      H        0.71530    0.60370    0.23480    1.000
    C87      C        0.62080    0.53430    0.24340    1.000
    C88      C        0.58390    0.46740    0.23390    1.000
    H51      H        0.53940    0.44860    0.23810    1.000
    C89      C        0.60940    0.42700    0.21850    1.000
    H52      H        0.58330    0.38250    0.21730    1.000
    C90      C        0.59260    0.57110    0.29730    1.000
    C91      C        0.59300    0.57440    0.20020    1.000
    O14      O        0.36527    0.75113    0.52003    1.000
    N14      N        0.33997    0.78843    0.53893    1.000
    C92      C        0.37867    0.85253    0.54223    1.000
    H53      H        0.42267    0.87023    0.53043    1.000
    C93      C        0.35417    0.89283    0.56313    1.000
    H54      H        0.38197    0.93703    0.56813    1.000
    C94      C        0.28747    0.86763    0.57673    1.000
    C95      C        0.25057    0.80073    0.56723    1.000
    H55      H        0.20607    0.78193    0.57143    1.000
    C96      C        0.27607    0.76033    0.55183    1.000
    H56      H        0.24997    0.71583    0.55063    1.000
    C97      C        0.25927    0.90443    0.63063    1.000
    C98      C        0.25967    0.90773    0.53353    1.000
    O15      O        0.03193    0.08447    0.85337    1.000
    N15      N        0.00663    0.12177    0.87227    1.000
    C99      C        0.04533    0.18587    0.87557    1.000
    H57      H        0.08933    0.20357    0.86377    1.000
    C100     C        0.02083    0.22617    0.89647    1.000
    H58      H        0.04863    0.27037    0.90147    1.000
    C101     C        0.95413    0.20097    0.91007    1.000
    C102     C        0.91723    0.13407    0.90057    1.000
    H59      H        0.87273    0.11527    0.90477    1.000
    C103     C        0.94273    0.09367    0.88517    1.000
    H60      H        0.91663    0.04917    0.88397    1.000
    C104     C        0.92593    0.23777    0.96397    1.000
    C105     C        0.92633    0.24107    0.86687    1.000
    O16      O        0.71920    0.30140    0.18670    1.000
    N16      N        0.78180    0.32670    0.20560    1.000
    C106     C        0.80720    0.28800    0.20890    1.000
    H61      H        0.78090    0.24400    0.19710    1.000
    C107     C        0.87200    0.31250    0.22980    1.000
    H62      H        0.88840    0.28470    0.23480    1.000
    C108     C        0.91350    0.37920    0.24340    1.000
    C109     C        0.88350    0.41610    0.23390    1.000
    H63      H        0.90920    0.46060    0.23810    1.000
    C110     C        0.81760    0.39060    0.21850    1.000
    H64      H        0.79920    0.41670    0.21730    1.000
    C111     C        0.97850    0.40740    0.29730    1.000
    C112     C        0.98140    0.40700    0.20020    1.000
    O17      O        0.38587    0.63473    0.52003    1.000
    N17      N        0.44847    0.66003    0.53893    1.000
    C113     C        0.47387    0.62133    0.54223    1.000
    H65      H        0.44757    0.57733    0.53043    1.000
    C114     C        0.53867    0.64583    0.56313    1.000
    H66      H        0.55507    0.61803    0.56813    1.000
    C115     C        0.58017    0.71253    0.57673    1.000
    C116     C        0.55017    0.74943    0.56723    1.000
    H67      H        0.57587    0.79393    0.57143    1.000
    C117     C        0.48427    0.72393    0.55183    1.000
    H68      H        0.46587    0.75003    0.55063    1.000
    C118     C        0.64517    0.74073    0.63063    1.000
    C119     C        0.64807    0.74033    0.53353    1.000
    O18      O        0.05253    0.96807    0.85337    1.000
    N18      N        0.11513    0.99337    0.87227    1.000
    C120     C        0.14053    0.95467    0.87557    1.000
    H69      H        0.11423    0.91067    0.86377    1.000
    C121     C        0.20533    0.97917    0.89647    1.000
    H70      H        0.22173    0.95137    0.90147    1.000
    C122     C        0.24683    0.04587    0.91007    1.000
    C123     C        0.21683    0.08277    0.90057    1.000
    H71      H        0.24253    0.12727    0.90477    1.000
    C124     C        0.15093    0.05727    0.88517    1.000
    H72      H        0.13253    0.08337    0.88397    1.000
    C125     C        0.31183    0.07407    0.96397    1.000
    C126     C        0.31473    0.07367    0.86687    1.000
    Yb1      Yb       0.66667    0.33333    0.08333    1.000
    Yb2      Yb       0.00000    0.00000    0.75000    1.000
    Yb3      Yb       0.33333    0.66667    0.41667    1.000
    O19      O        0.71920    0.41780    0.68670    1.000
    N19      N        0.78180    0.45510    0.70560    1.000
    C127     C        0.80720    0.51920    0.70890    1.000
    H73      H        0.78090    0.53690    0.69710    1.000
    C128     C        0.87200    0.55950    0.72980    1.000
    H74      H        0.88840    0.60370    0.73480    1.000
    C129     C        0.91350    0.53430    0.74340    1.000
    C130     C        0.88350    0.46740    0.73390    1.000
    H75      H        0.90920    0.44860    0.73810    1.000
    C131     C        0.81760    0.42700    0.71850    1.000
    H76      H        0.79920    0.38250    0.71730    1.000
    C132     C        0.97850    0.57110    0.79730    1.000
    C133     C        0.98140    0.57440    0.70020    1.000
    O20      O        0.38587    0.75113    0.02003    1.000
    N20      N        0.44847    0.78843    0.03893    1.000
    C134     C        0.47387    0.85253    0.04223    1.000
    H77      H        0.44757    0.87023    0.03043    1.000
    C135     C        0.53867    0.89283    0.06313    1.000
    H78      H        0.55507    0.93703    0.06813    1.000
    C136     C        0.58017    0.86763    0.07673    1.000
    C137     C        0.55017    0.80073    0.06723    1.000
    H79      H        0.57587    0.78193    0.07143    1.000
    C138     C        0.48427    0.76033    0.05183    1.000
    H80      H        0.46587    0.71583    0.05063    1.000
    C139     C        0.64517    0.90443    0.13063    1.000
    C140     C        0.64807    0.90773    0.03353    1.000
    O21      O        0.05253    0.08447    0.35337    1.000
    N21      N        0.11513    0.12177    0.37227    1.000
    C141     C        0.14053    0.18587    0.37557    1.000
    H81      H        0.11423    0.20357    0.36377    1.000
    C142     C        0.20533    0.22617    0.39647    1.000
    H82      H        0.22173    0.27037    0.40147    1.000
    C143     C        0.24683    0.20097    0.41007    1.000
    C144     C        0.21683    0.13407    0.40057    1.000
    H83      H        0.24253    0.11527    0.40477    1.000
    C145     C        0.15093    0.09367    0.38517    1.000
    H84      H        0.13253    0.04917    0.38397    1.000
    C146     C        0.31183    0.23777    0.46397    1.000
    C147     C        0.31473    0.24107    0.36687    1.000
    O22      O        0.58220    0.30140    0.68670    1.000
    N22      N        0.54490    0.32670    0.70560    1.000
    C148     C        0.48080    0.28800    0.70890    1.000
    H85      H        0.46310    0.24400    0.69710    1.000
    C149     C        0.44050    0.31250    0.72980    1.000
    H86      H        0.39630    0.28470    0.73480    1.000
    C150     C        0.46570    0.37920    0.74340    1.000
    C151     C        0.53260    0.41610    0.73390    1.000
    H87      H        0.55140    0.46060    0.73810    1.000
    C152     C        0.57300    0.39060    0.71850    1.000
    H88      H        0.61750    0.41670    0.71730    1.000
    C153     C        0.42890    0.40740    0.79730    1.000
    C154     C        0.42560    0.40700    0.70020    1.000
    O23      O        0.24887    0.63473    0.02003    1.000
    N23      N        0.21157    0.66003    0.03893    1.000
    C155     C        0.14747    0.62133    0.04223    1.000
    H89      H        0.12977    0.57733    0.03043    1.000
    C156     C        0.10717    0.64583    0.06313    1.000
    H90      H        0.06297    0.61803    0.06813    1.000
    C157     C        0.13237    0.71253    0.07673    1.000
    C158     C        0.19927    0.74943    0.06723    1.000
    H91      H        0.21807    0.79393    0.07143    1.000
    C159     C        0.23967    0.72393    0.05183    1.000
    H92      H        0.28417    0.75003    0.05063    1.000
    C160     C        0.09557    0.74073    0.13063    1.000
    C161     C        0.09227    0.74033    0.03353    1.000
    O24      O        0.91553    0.96807    0.35337    1.000
    N24      N        0.87823    0.99337    0.37227    1.000
    C162     C        0.81413    0.95467    0.37557    1.000
    H93      H        0.79643    0.91067    0.36377    1.000
    C163     C        0.77383    0.97917    0.39647    1.000
    H94      H        0.72963    0.95137    0.40147    1.000
    C164     C        0.79903    0.04587    0.41007    1.000
    C165     C        0.86593    0.08277    0.40057    1.000
    H95      H        0.88473    0.12727    0.40477    1.000
    C166     C        0.90633    0.05727    0.38517    1.000
    H96      H        0.95083    0.08337    0.38397    1.000
    C167     C        0.76223    0.07407    0.46397    1.000
    C168     C        0.75893    0.07367    0.36687    1.000
    O25      O        0.69860    0.28080    0.68670    1.000
    N25      N        0.67330    0.21820    0.70560    1.000
    C169     C        0.71200    0.19280    0.70890    1.000
    H97      H        0.75600    0.21910    0.69710    1.000
    C170     C        0.68750    0.12800    0.72980    1.000
    H98      H        0.71530    0.11160    0.73480    1.000
    C171     C        0.62080    0.08650    0.74340    1.000
    C172     C        0.58390    0.11650    0.73390    1.000
    H99      H        0.53940    0.09080    0.73810    1.000
    C173     C        0.60940    0.18240    0.71850    1.000
    H100     H        0.58330    0.20080    0.71730    1.000
    C174     C        0.59260    0.02150    0.79730    1.000
    C175     C        0.59300    0.01860    0.70020    1.000
    O26      O        0.36527    0.61413    0.02003    1.000
    N26      N        0.33997    0.55153    0.03893    1.000
    C176     C        0.37867    0.52613    0.04223    1.000
    H101     H        0.42267    0.55243    0.03043    1.000
    C177     C        0.35417    0.46133    0.06313    1.000
    H102     H        0.38197    0.44493    0.06813    1.000
    C178     C        0.28747    0.41983    0.07673    1.000
    C179     C        0.25057    0.44983    0.06723    1.000
    H103     H        0.20607    0.42413    0.07143    1.000
    C180     C        0.27607    0.51573    0.05183    1.000
    H104     H        0.24997    0.53413    0.05063    1.000
    C181     C        0.25927    0.35483    0.13063    1.000
    C182     C        0.25967    0.35193    0.03353    1.000
    O27      O        0.03193    0.94747    0.35337    1.000
    N27      N        0.00663    0.88487    0.37227    1.000
    C183     C        0.04533    0.85947    0.37557    1.000
    H105     H        0.08933    0.88577    0.36377    1.000
    C184     C        0.02083    0.79467    0.39647    1.000
    H106     H        0.04863    0.77827    0.40147    1.000
    C185     C        0.95413    0.75317    0.41007    1.000
    C186     C        0.91723    0.78317    0.40057    1.000
    H107     H        0.87273    0.75747    0.40477    1.000
    C187     C        0.94273    0.84907    0.38517    1.000
    H108     H        0.91663    0.86747    0.38397    1.000
    C188     C        0.92593    0.68817    0.46397    1.000
    C189     C        0.92633    0.68527    0.36687    1.000
    O28      O        0.41780    0.71920    0.81330    1.000
    N28      N        0.45510    0.78180    0.79440    1.000
    C190     C        0.51920    0.80720    0.79110    1.000
    H109     H        0.53690    0.78090    0.80290    1.000
    C191     C        0.55950    0.87200    0.77020    1.000
    H110     H        0.60370    0.88840    0.76520    1.000
    C192     C        0.53430    0.91350    0.75660    1.000
    C193     C        0.46740    0.88350    0.76610    1.000
    H111     H        0.44860    0.90920    0.76190    1.000
    C194     C        0.42700    0.81760    0.78150    1.000
    H112     H        0.38250    0.79920    0.78270    1.000
    C195     C        0.57110    0.97850    0.70270    1.000
    C196     C        0.57440    0.98140    0.79980    1.000
    O29      O        0.08447    0.05253    0.14663    1.000
    N29      N        0.12177    0.11513    0.12773    1.000
    C197     C        0.18587    0.14053    0.12443    1.000
    H113     H        0.20357    0.11423    0.13623    1.000
    C198     C        0.22617    0.20533    0.10353    1.000
    H114     H        0.27037    0.22173    0.09853    1.000
    C199     C        0.20097    0.24683    0.08993    1.000
    C200     C        0.13407    0.21683    0.09943    1.000
    H115     H        0.11527    0.24253    0.09523    1.000
    C201     C        0.09367    0.15093    0.11483    1.000
    H116     H        0.04917    0.13253    0.11603    1.000
    C202     C        0.23777    0.31183    0.03603    1.000
    C203     C        0.24107    0.31473    0.13313    1.000
    O30      O        0.75113    0.38587    0.47997    1.000
    N30      N        0.78843    0.44847    0.46107    1.000
    C204     C        0.85253    0.47387    0.45777    1.000
    H117     H        0.87023    0.44757    0.46957    1.000
    C205     C        0.89283    0.53867    0.43687    1.000
    H118     H        0.93703    0.55507    0.43187    1.000
    C206     C        0.86763    0.58017    0.42327    1.000
    C207     C        0.80073    0.55017    0.43277    1.000
    H119     H        0.78193    0.57587    0.42857    1.000
    C208     C        0.76033    0.48427    0.44817    1.000
    H120     H        0.71583    0.46587    0.44937    1.000
    C209     C        0.90443    0.64517    0.36937    1.000
    C210     C        0.90773    0.64807    0.46647    1.000
    O31      O        0.30140    0.58220    0.81330    1.000
    N31      N        0.32670    0.54490    0.79440    1.000
    C211     C        0.28800    0.48080    0.79110    1.000
    H121     H        0.24400    0.46310    0.80290    1.000
    C212     C        0.31250    0.44050    0.77020    1.000
    H122     H        0.28470    0.39630    0.76520    1.000
    C213     C        0.37920    0.46570    0.75660    1.000
    C214     C        0.41610    0.53260    0.76610    1.000
    H123     H        0.46060    0.55140    0.76190    1.000
    C215     C        0.39060    0.57300    0.78150    1.000
    H124     H        0.41670    0.61750    0.78270    1.000
    C216     C        0.40740    0.42890    0.70270    1.000
    C217     C        0.40700    0.42560    0.79980    1.000
    O32      O        0.96807    0.91553    0.14663    1.000
    N32      N        0.99337    0.87823    0.12773    1.000
    C218     C        0.95467    0.81413    0.12443    1.000
    H125     H        0.91067    0.79643    0.13623    1.000
    C219     C        0.97917    0.77383    0.10353    1.000
    H126     H        0.95137    0.72963    0.09853    1.000
    C220     C        0.04587    0.79903    0.08993    1.000
    C221     C        0.08277    0.86593    0.09943    1.000
    H127     H        0.12727    0.88473    0.09523    1.000
    C222     C        0.05727    0.90633    0.11483    1.000
    H128     H        0.08337    0.95083    0.11603    1.000
    C223     C        0.07407    0.76223    0.03603    1.000
    C224     C        0.07367    0.75893    0.13313    1.000
    O33      O        0.63473    0.24887    0.47997    1.000
    N33      N        0.66003    0.21157    0.46107    1.000
    C225     C        0.62133    0.14747    0.45777    1.000
    H129     H        0.57733    0.12977    0.46957    1.000
    C226     C        0.64583    0.10717    0.43687    1.000
    H130     H        0.61803    0.06297    0.43187    1.000
    C227     C        0.71253    0.13237    0.42327    1.000
    C228     C        0.74943    0.19927    0.43277    1.000
    H131     H        0.79393    0.21807    0.42857    1.000
    C229     C        0.72393    0.23967    0.44817    1.000
    H132     H        0.75003    0.28417    0.44937    1.000
    C230     C        0.74073    0.09557    0.36937    1.000
    C231     C        0.74033    0.09227    0.46647    1.000
    O34      O        0.28080    0.69860    0.81330    1.000
    N34      N        0.21820    0.67330    0.79440    1.000
    C232     C        0.19280    0.71200    0.79110    1.000
    H133     H        0.21910    0.75600    0.80290    1.000
    C233     C        0.12800    0.68750    0.77020    1.000
    H134     H        0.11160    0.71530    0.76520    1.000
    C234     C        0.08650    0.62080    0.75660    1.000
    C235     C        0.11650    0.58390    0.76610    1.000
    H135     H        0.09080    0.53940    0.76190    1.000
    C236     C        0.18240    0.60940    0.78150    1.000
    H136     H        0.20080    0.58330    0.78270    1.000
    C237     C        0.02150    0.59260    0.70270    1.000
    C238     C        0.01860    0.59300    0.79980    1.000
    O35      O        0.94747    0.03193    0.14663    1.000
    N35      N        0.88487    0.00663    0.12773    1.000
    C239     C        0.85947    0.04533    0.12443    1.000
    H137     H        0.88577    0.08933    0.13623    1.000
    C240     C        0.79467    0.02083    0.10353    1.000
    H138     H        0.77827    0.04863    0.09853    1.000
    C241     C        0.75317    0.95413    0.08993    1.000
    C242     C        0.78317    0.91723    0.09943    1.000
    H139     H        0.75747    0.87273    0.09523    1.000
    C243     C        0.84907    0.94273    0.11483    1.000
    H140     H        0.86747    0.91663    0.11603    1.000
    C244     C        0.68817    0.92593    0.03603    1.000
    C245     C        0.68527    0.92633    0.13313    1.000
    O36      O        0.61413    0.36527    0.47997    1.000
    N36      N        0.55153    0.33997    0.46107    1.000
    C246     C        0.52613    0.37867    0.45777    1.000
    H141     H        0.55243    0.42267    0.46957    1.000
    C247     C        0.46133    0.35417    0.43687    1.000
    H142     H        0.44493    0.38197    0.43187    1.000
    C248     C        0.41983    0.28747    0.42327    1.000
    C249     C        0.44983    0.25057    0.43277    1.000
    H143     H        0.42413    0.20607    0.42857    1.000
    C250     C        0.51573    0.27607    0.44817    1.000
    H144     H        0.53413    0.24997    0.44937    1.000
    C251     C        0.35483    0.25927    0.36937    1.000
    C252     C        0.35193    0.25967    0.46647    1.000
    Yb4      Yb       0.33333    0.66667    0.91667    1.000
    Yb5      Yb       0.00000    0.00000    0.25000    1.000
    Yb6      Yb       0.66667    0.33333    0.58333    1.000
