# CIF file generated by openbabel 3.1.0, see https://openbabel.org
data_I
_chemical_name_common 'XEDPIH_clean'
_cell_length_a 10.209
_cell_length_b 13.636
_cell_length_c 14.124
_cell_angle_alpha 91.568
_cell_angle_beta 90
_cell_angle_gamma 90
_space_group_name_H-M_alt 'P 1'
_space_group_name_Hall 'P 1'
loop_
    _symmetry_equiv_pos_as_xyz
    x,y,z
loop_
    _atom_site_label
    _atom_site_type_symbol
    _atom_site_fract_x
    _atom_site_fract_y
    _atom_site_fract_z
    _atom_site_occupancy
    Zn1      Zn       0.91487    0.33746    0.32673    1.000
    Zn2      Zn       0.49603    0.30791    0.65462    1.000
    Zn3      Zn       0.41487    0.16254    0.17327    1.000
    Zn4      Zn       0.99603    0.19209    0.84538    1.000
    Zn5      Zn       0.08513    0.66254    0.67327    1.000
    Zn6      Zn       0.50397    0.69209    0.34538    1.000
    Zn7      Zn       0.58513    0.83746    0.82673    1.000
    Zn8      Zn       0.00397    0.80791    0.15462    1.000
    H1       H        0.08890    0.26320    0.47640    1.000
    H2       H        0.70440    0.24720    0.81100    1.000
    H3       H        0.70660    0.31490    0.47820    1.000
    H4       H        0.32230    0.53080    0.29110    1.000
    H5       H        0.70850    0.18870    0.23720    1.000
    H6       H        0.70180    0.52590    0.35030    1.000
    H7       H        0.58890    0.23680    0.02360    1.000
    H8       H        0.20440    0.25280    0.68900    1.000
    H9       H        0.20660    0.18510    0.02180    1.000
    H10      H        0.82230    0.96920    0.20890    1.000
    H11      H        0.20850    0.31130    0.26280    1.000
    H12      H        0.20180    0.97410    0.14970    1.000
    H13      H        0.91110    0.73680    0.52360    1.000
    H14      H        0.29560    0.75280    0.18900    1.000
    H15      H        0.29340    0.68510    0.52180    1.000
    H16      H        0.67770    0.46920    0.70890    1.000
    H17      H        0.29150    0.81130    0.76280    1.000
    H18      H        0.29820    0.47410    0.64970    1.000
    H19      H        0.41110    0.76320    0.97640    1.000
    H20      H        0.79560    0.74720    0.31100    1.000
    H21      H        0.79340    0.81490    0.97820    1.000
    H22      H        0.17770    0.03080    0.79110    1.000
    H23      H        0.79150    0.68870    0.73720    1.000
    H24      H        0.79820    0.02590    0.85030    1.000
    C1       C        0.00950    0.26610    0.51140    1.000
    C2       C        0.90120    0.25010    0.64760    1.000
    C3       C        0.74800    0.25210    0.75190    1.000
    C4       C        0.78220    0.27530    0.60430    1.000
    C5       C        0.78460    0.29710    0.51020    1.000
    C6       C        0.40180    0.49460    0.29090    1.000
    C7       C        0.51110    0.35540    0.26250    1.000
    C8       C        0.66440    0.24880    0.25040    1.000
    C9       C        0.62910    0.39820    0.29450    1.000
    C10      C        0.62530    0.49420    0.32640    1.000
    C11      C        0.50950    0.23390    0.98860    1.000
    C12      C        0.40120    0.24990    0.85240    1.000
    C13      C        0.24800    0.24790    0.74810    1.000
    C14      C        0.28220    0.22470    0.89570    1.000
    C15      C        0.28460    0.20290    0.98980    1.000
    C16      C        0.90180    0.00540    0.20910    1.000
    C17      C        0.01110    0.14460    0.23750    1.000
    C18      C        0.16440    0.25120    0.24960    1.000
    C19      C        0.12910    0.10180    0.20550    1.000
    C20      C        0.12530    0.00580    0.17360    1.000
    C21      C        0.99050    0.73390    0.48860    1.000
    C22      C        0.09880    0.74990    0.35240    1.000
    C23      C        0.25200    0.74790    0.24810    1.000
    C24      C        0.21780    0.72470    0.39570    1.000
    C25      C        0.21540    0.70290    0.48980    1.000
    C26      C        0.59820    0.50540    0.70910    1.000
    C27      C        0.48890    0.64460    0.73750    1.000
    C28      C        0.33560    0.75120    0.74960    1.000
    C29      C        0.37090    0.60180    0.70550    1.000
    C30      C        0.37470    0.50580    0.67360    1.000
    C31      C        0.49050    0.76610    0.01140    1.000
    C32      C        0.59880    0.75010    0.14760    1.000
    C33      C        0.75200    0.75210    0.25190    1.000
    C34      C        0.71780    0.77530    0.10430    1.000
    C35      C        0.71540    0.79710    0.01020    1.000
    C36      C        0.09820    0.99460    0.79090    1.000
    C37      C        0.98890    0.85540    0.76250    1.000
    C38      C        0.83560    0.74880    0.75040    1.000
    C39      C        0.87090    0.89820    0.79450    1.000
    C40      C        0.87470    0.99420    0.82640    1.000
    Br1      Br       0.00700    0.49529    0.32341    1.000
    Br2      Br       0.40893    0.27136    0.50410    1.000
    Br3      Br       0.50700    0.00471    0.17659    1.000
    Br4      Br       0.90893    0.22864    0.99590    1.000
    Br5      Br       0.99300    0.50471    0.67659    1.000
    Br6      Br       0.59107    0.72864    0.49590    1.000
    Br7      Br       0.49300    0.99529    0.82341    1.000
    Br8      Br       0.09107    0.77136    0.00410    1.000
    N1       N        0.89970    0.29280    0.46400    1.000
    N2       N        0.01550    0.24360    0.60250    1.000
    N3       N        0.87900    0.23610    0.74210    1.000
    N4       N        0.68510    0.27510    0.67280    1.000
    N5       N        0.51060    0.54210    0.32290    1.000
    N6       N        0.39630    0.40200    0.25920    1.000
    N7       N        0.53490    0.26030    0.23430    1.000
    N8       N        0.72650    0.32810    0.28650    1.000
    N9       N        0.39970    0.20720    0.03600    1.000
    N10      N        0.51550    0.25640    0.89750    1.000
    N11      N        0.37900    0.26390    0.75790    1.000
    N12      N        0.18510    0.22490    0.82720    1.000
    N13      N        0.01060    0.95790    0.17710    1.000
    N14      N        0.89630    0.09800    0.24080    1.000
    N15      N        0.03490    0.23970    0.26570    1.000
    N16      N        0.22650    0.17190    0.21350    1.000
    N17      N        0.10030    0.70720    0.53600    1.000
    N18      N        0.98450    0.75640    0.39750    1.000
    N19      N        0.12100    0.76390    0.25790    1.000
    N20      N        0.31490    0.72490    0.32720    1.000
    N21      N        0.48940    0.45790    0.67710    1.000
    N22      N        0.60370    0.59800    0.74080    1.000
    N23      N        0.46510    0.73970    0.76570    1.000
    N24      N        0.27350    0.67190    0.71350    1.000
    N25      N        0.60030    0.79280    0.96400    1.000
    N26      N        0.48450    0.74360    0.10250    1.000
    N27      N        0.62100    0.73610    0.24210    1.000
    N28      N        0.81490    0.77510    0.17280    1.000
    N29      N        0.98940    0.04210    0.82290    1.000
    N30      N        0.10370    0.90200    0.75920    1.000
    N31      N        0.96510    0.76030    0.73430    1.000
    N32      N        0.77350    0.82810    0.78650    1.000
