# CIF file generated by openbabel 3.1.0, see https://openbabel.org
data_I
_chemical_name_common 'image0'
_cell_length_a 16.783
_cell_length_b 14.1889
_cell_length_c 18.6834
_cell_angle_alpha 90
_cell_angle_beta 97.743
_cell_angle_gamma 90
_space_group_name_H-M_alt 'P 1'
_space_group_name_Hall 'P 1'
loop_
    _symmetry_equiv_pos_as_xyz
    x,y,z
loop_
    _atom_site_label
    _atom_site_type_symbol
    _atom_site_fract_x
    _atom_site_fract_y
    _atom_site_fract_z
    _atom_site_occupancy
    Ni1      Ni       0.04002    0.28037    0.16827    1.000
    O1       O        0.04798    0.81292    0.83249    1.000
    O2       O        0.11683    0.80006    0.73950    1.000
    O3       O        0.37186    0.12860    0.84171    1.000
    O4       O        0.36098    0.03301    0.74711    1.000
    H1       H        0.03650    0.40020    0.26850    1.000
    N1       N        0.08026    0.20346    0.08463    1.000
    C1       C        0.03530    0.17540    0.03300    1.000
    H2       H        0.98080    0.18800    0.03190    1.000
    C2       C        0.05910    0.12540    0.97470    1.000
    H3       H        0.02020    0.10790    0.93680    1.000
    C3       C        0.13510    0.10240    0.97194    1.000
    C4       C        0.19100    0.13580    0.03580    1.000
    H4       H        0.24590    0.12410    0.03860    1.000
    C5       C        0.16120    0.18450    0.09110    1.000
    H5       H        0.19550    0.20380    0.13170    1.000
    C6       C        0.16450    0.04930    0.91231    1.000
    C7       C        0.12430    0.97000    0.88233    1.000
    H6       H        0.07870    0.94910    0.90080    1.000
    C8       C        0.15035    0.92160    0.82603    1.000
    C9       C        0.21917    0.95240    0.79786    1.000
    H7       H        0.23670    0.92070    0.75930    1.000
    C10      C        0.26072    0.02980    0.82761    1.000
    C11      C        0.23330    0.07770    0.88460    1.000
    H8       H        0.26170    0.12980    0.90450    1.000
    C12      C        0.10142    0.83740    0.79598    1.000
    C13      C        0.33750    0.06590    0.80257    1.000
    C14      C        0.08220    0.10700    0.08160    1.000
    H9       H        0.06540    0.07380    0.11980    1.000
    C15      C        0.10710    0.05590    0.02640    1.000
    H10      H        0.10480    0.99040    0.02650    1.000
    C16      C        0.12400    0.19710    0.96520    1.000
    H11      H        0.13380    0.22890    0.92370    1.000
    C17      C        0.09750    0.24480    0.02270    1.000
    H12      H        0.09120    0.30970    0.01850    1.000
    Ni2      Ni       0.54002    0.78037    0.16827    1.000
    O5       O        0.54798    0.31292    0.83249    1.000
    O6       O        0.61683    0.30006    0.73950    1.000
    O7       O        0.87186    0.62860    0.84171    1.000
    O8       O        0.86098    0.53301    0.74711    1.000
    H13      H        0.53650    0.90020    0.26850    1.000
    N2       N        0.58026    0.70346    0.08463    1.000
    C18      C        0.53530    0.67540    0.03300    1.000
    H14      H        0.48080    0.68800    0.03190    1.000
    C19      C        0.55910    0.62540    0.97470    1.000
    H15      H        0.52020    0.60790    0.93680    1.000
    C20      C        0.63510    0.60240    0.97194    1.000
    C21      C        0.69100    0.63580    0.03580    1.000
    H16      H        0.74590    0.62410    0.03860    1.000
    C22      C        0.66120    0.68450    0.09110    1.000
    H17      H        0.69550    0.70380    0.13170    1.000
    C23      C        0.66450    0.54930    0.91231    1.000
    C24      C        0.62430    0.47000    0.88233    1.000
    H18      H        0.57870    0.44910    0.90080    1.000
    C25      C        0.65035    0.42160    0.82603    1.000
    C26      C        0.71917    0.45240    0.79786    1.000
    H19      H        0.73670    0.42070    0.75930    1.000
    C27      C        0.76072    0.52980    0.82761    1.000
    C28      C        0.73330    0.57770    0.88460    1.000
    H20      H        0.76170    0.62980    0.90450    1.000
    C29      C        0.60142    0.33740    0.79598    1.000
    C30      C        0.83750    0.56590    0.80257    1.000
    C31      C        0.58220    0.60700    0.08160    1.000
    H21      H        0.56540    0.57380    0.11980    1.000
    C32      C        0.60710    0.55590    0.02640    1.000
    H22      H        0.60480    0.49040    0.02650    1.000
    C33      C        0.62400    0.69710    0.96520    1.000
    H23      H        0.63380    0.72890    0.92370    1.000
    C34      C        0.59750    0.74480    0.02270    1.000
    H24      H        0.59120    0.80970    0.01850    1.000
    Ni3      Ni       0.95998    0.28037    0.33173    1.000
    O9       O        0.95202    0.81292    0.66751    1.000
    O10      O        0.88317    0.80006    0.76050    1.000
    O11      O        0.62814    0.12860    0.65829    1.000
    O12      O        0.63902    0.03301    0.75289    1.000
    H25      H        0.96350    0.40020    0.23150    1.000
    N3       N        0.91974    0.20346    0.41537    1.000
    C35      C        0.96470    0.17540    0.46700    1.000
    H26      H        0.01920    0.18800    0.46810    1.000
    C36      C        0.94090    0.12540    0.52530    1.000
    H27      H        0.97980    0.10790    0.56320    1.000
    C37      C        0.86490    0.10240    0.52806    1.000
    C38      C        0.80900    0.13580    0.46420    1.000
    H28      H        0.75410    0.12410    0.46140    1.000
    C39      C        0.83880    0.18450    0.40890    1.000
    H29      H        0.80450    0.20380    0.36830    1.000
    C40      C        0.83550    0.04930    0.58769    1.000
    C41      C        0.87570    0.97000    0.61767    1.000
    H30      H        0.92130    0.94910    0.59920    1.000
    C42      C        0.84965    0.92160    0.67397    1.000
    C43      C        0.78083    0.95240    0.70214    1.000
    H31      H        0.76330    0.92070    0.74070    1.000
    C44      C        0.73928    0.02980    0.67239    1.000
    C45      C        0.76670    0.07770    0.61540    1.000
    H32      H        0.73830    0.12980    0.59550    1.000
    C46      C        0.89858    0.83740    0.70402    1.000
    C47      C        0.66250    0.06590    0.69743    1.000
    C48      C        0.91780    0.10700    0.41840    1.000
    H33      H        0.93460    0.07380    0.38020    1.000
    C49      C        0.89290    0.05590    0.47360    1.000
    H34      H        0.89520    0.99040    0.47350    1.000
    C50      C        0.87600    0.19710    0.53480    1.000
    H35      H        0.86620    0.22890    0.57630    1.000
    C51      C        0.90250    0.24480    0.47730    1.000
    H36      H        0.90880    0.30970    0.48150    1.000
    Ni4      Ni       0.45998    0.78037    0.33173    1.000
    O13      O        0.45202    0.31292    0.66751    1.000
    O14      O        0.38317    0.30006    0.76050    1.000
    O15      O        0.12814    0.62860    0.65829    1.000
    O16      O        0.13902    0.53301    0.75289    1.000
    H37      H        0.46350    0.90020    0.23150    1.000
    N4       N        0.41974    0.70346    0.41537    1.000
    C52      C        0.46470    0.67540    0.46700    1.000
    H38      H        0.51920    0.68800    0.46810    1.000
    C53      C        0.44090    0.62540    0.52530    1.000
    H39      H        0.47980    0.60790    0.56320    1.000
    C54      C        0.36490    0.60240    0.52806    1.000
    C55      C        0.30900    0.63580    0.46420    1.000
    H40      H        0.25410    0.62410    0.46140    1.000
    C56      C        0.33880    0.68450    0.40890    1.000
    H41      H        0.30450    0.70380    0.36830    1.000
    C57      C        0.33550    0.54930    0.58769    1.000
    C58      C        0.37570    0.47000    0.61767    1.000
    H42      H        0.42130    0.44910    0.59920    1.000
    C59      C        0.34965    0.42160    0.67397    1.000
    C60      C        0.28083    0.45240    0.70214    1.000
    H43      H        0.26330    0.42070    0.74070    1.000
    C61      C        0.23928    0.52980    0.67239    1.000
    C62      C        0.26670    0.57770    0.61540    1.000
    H44      H        0.23830    0.62980    0.59550    1.000
    C63      C        0.39858    0.33740    0.70402    1.000
    C64      C        0.16250    0.56590    0.69743    1.000
    C65      C        0.41780    0.60700    0.41840    1.000
    H45      H        0.43460    0.57380    0.38020    1.000
    C66      C        0.39290    0.55590    0.47360    1.000
    H46      H        0.39520    0.49040    0.47350    1.000
    C67      C        0.37600    0.69710    0.53480    1.000
    H47      H        0.36620    0.72890    0.57630    1.000
    C68      C        0.40250    0.74480    0.47730    1.000
    H48      H        0.40880    0.80970    0.48150    1.000
    Ni5      Ni       0.95998    0.71963    0.83173    1.000
    O17      O        0.95202    0.18708    0.16751    1.000
    O18      O        0.88317    0.19994    0.26050    1.000
    O19      O        0.62814    0.87140    0.15829    1.000
    O20      O        0.63902    0.96699    0.25289    1.000
    H49      H        0.96350    0.59980    0.73150    1.000
    N5       N        0.91974    0.79654    0.91537    1.000
    C69      C        0.96470    0.82460    0.96700    1.000
    H50      H        0.01920    0.81200    0.96810    1.000
    C70      C        0.94090    0.87460    0.02530    1.000
    H51      H        0.97980    0.89210    0.06320    1.000
    C71      C        0.86490    0.89760    0.02806    1.000
    C72      C        0.80900    0.86420    0.96420    1.000
    H52      H        0.75410    0.87590    0.96140    1.000
    C73      C        0.83880    0.81550    0.90890    1.000
    H53      H        0.80450    0.79620    0.86830    1.000
    C74      C        0.83550    0.95070    0.08769    1.000
    C75      C        0.87570    0.03000    0.11767    1.000
    H54      H        0.92130    0.05090    0.09920    1.000
    C76      C        0.84965    0.07840    0.17397    1.000
    C77      C        0.78083    0.04760    0.20214    1.000
    H55      H        0.76330    0.07930    0.24070    1.000
    C78      C        0.73928    0.97020    0.17239    1.000
    C79      C        0.76670    0.92230    0.11540    1.000
    H56      H        0.73830    0.87020    0.09550    1.000
    C80      C        0.89858    0.16260    0.20402    1.000
    C81      C        0.66250    0.93410    0.19743    1.000
    C82      C        0.91780    0.89300    0.91840    1.000
    H57      H        0.93460    0.92620    0.88020    1.000
    C83      C        0.89290    0.94410    0.97360    1.000
    H58      H        0.89520    0.00960    0.97350    1.000
    C84      C        0.87600    0.80290    0.03480    1.000
    H59      H        0.86620    0.77110    0.07630    1.000
    C85      C        0.90250    0.75520    0.97730    1.000
    H60      H        0.90880    0.69030    0.98150    1.000
    Ni6      Ni       0.45998    0.21963    0.83173    1.000
    O21      O        0.45202    0.68708    0.16751    1.000
    O22      O        0.38317    0.69994    0.26050    1.000
    O23      O        0.12814    0.37140    0.15829    1.000
    O24      O        0.13902    0.46699    0.25289    1.000
    H61      H        0.46350    0.09980    0.73150    1.000
    N6       N        0.41974    0.29654    0.91537    1.000
    C86      C        0.46470    0.32460    0.96700    1.000
    H62      H        0.51920    0.31200    0.96810    1.000
    C87      C        0.44090    0.37460    0.02530    1.000
    H63      H        0.47980    0.39210    0.06320    1.000
    C88      C        0.36490    0.39760    0.02806    1.000
    C89      C        0.30900    0.36420    0.96420    1.000
    H64      H        0.25410    0.37590    0.96140    1.000
    C90      C        0.33880    0.31550    0.90890    1.000
    H65      H        0.30450    0.29620    0.86830    1.000
    C91      C        0.33550    0.45070    0.08769    1.000
    C92      C        0.37570    0.53000    0.11767    1.000
    H66      H        0.42130    0.55090    0.09920    1.000
    C93      C        0.34965    0.57840    0.17397    1.000
    C94      C        0.28083    0.54760    0.20214    1.000
    H67      H        0.26330    0.57930    0.24070    1.000
    C95      C        0.23928    0.47020    0.17239    1.000
    C96      C        0.26670    0.42230    0.11540    1.000
    H68      H        0.23830    0.37020    0.09550    1.000
    C97      C        0.39858    0.66260    0.20402    1.000
    C98      C        0.16250    0.43410    0.19743    1.000
    C99      C        0.41780    0.39300    0.91840    1.000
    H69      H        0.43460    0.42620    0.88020    1.000
    C100     C        0.39290    0.44410    0.97360    1.000
    H70      H        0.39520    0.50960    0.97350    1.000
    C101     C        0.37600    0.30290    0.03480    1.000
    H71      H        0.36620    0.27110    0.07630    1.000
    C102     C        0.40250    0.25520    0.97730    1.000
    H72      H        0.40880    0.19030    0.98150    1.000
    Ni7      Ni       0.04002    0.71963    0.66827    1.000
    O25      O        0.04798    0.18708    0.33249    1.000
    O26      O        0.11683    0.19994    0.23950    1.000
    O27      O        0.37186    0.87140    0.34171    1.000
    O28      O        0.36098    0.96699    0.24711    1.000
    H73      H        0.03650    0.59980    0.76850    1.000
    N7       N        0.08026    0.79654    0.58463    1.000
    C103     C        0.03530    0.82460    0.53300    1.000
    H74      H        0.98080    0.81200    0.53190    1.000
    C104     C        0.05910    0.87460    0.47470    1.000
    H75      H        0.02020    0.89210    0.43680    1.000
    C105     C        0.13510    0.89760    0.47194    1.000
    C106     C        0.19100    0.86420    0.53580    1.000
    H76      H        0.24590    0.87590    0.53860    1.000
    C107     C        0.16120    0.81550    0.59110    1.000
    H77      H        0.19550    0.79620    0.63170    1.000
    C108     C        0.16450    0.95070    0.41231    1.000
    C109     C        0.12430    0.03000    0.38233    1.000
    H78      H        0.07870    0.05090    0.40080    1.000
    C110     C        0.15035    0.07840    0.32603    1.000
    C111     C        0.21917    0.04760    0.29786    1.000
    H79      H        0.23670    0.07930    0.25930    1.000
    C112     C        0.26072    0.97020    0.32761    1.000
    C113     C        0.23330    0.92230    0.38460    1.000
    H80      H        0.26170    0.87020    0.40450    1.000
    C114     C        0.10142    0.16260    0.29598    1.000
    C115     C        0.33750    0.93410    0.30257    1.000
    C116     C        0.08220    0.89300    0.58160    1.000
    H81      H        0.06540    0.92620    0.61980    1.000
    C117     C        0.10710    0.94410    0.52640    1.000
    H82      H        0.10480    0.00960    0.52650    1.000
    C118     C        0.12400    0.80290    0.46520    1.000
    H83      H        0.13380    0.77110    0.42370    1.000
    C119     C        0.09750    0.75520    0.52270    1.000
    H84      H        0.09120    0.69030    0.51850    1.000
    Ni8      Ni       0.54002    0.21963    0.66827    1.000
    O29      O        0.54798    0.68708    0.33249    1.000
    O30      O        0.61683    0.69994    0.23950    1.000
    O31      O        0.87186    0.37140    0.34171    1.000
    O32      O        0.86098    0.46699    0.24711    1.000
    H85      H        0.53650    0.09980    0.76850    1.000
    N8       N        0.58026    0.29654    0.58463    1.000
    C120     C        0.53530    0.32460    0.53300    1.000
    H86      H        0.48080    0.31200    0.53190    1.000
    C121     C        0.55910    0.37460    0.47470    1.000
    H87      H        0.52020    0.39210    0.43680    1.000
    C122     C        0.63510    0.39760    0.47194    1.000
    C123     C        0.69100    0.36420    0.53580    1.000
    H88      H        0.74590    0.37590    0.53860    1.000
    C124     C        0.66120    0.31550    0.59110    1.000
    H89      H        0.69550    0.29620    0.63170    1.000
    C125     C        0.66450    0.45070    0.41231    1.000
    C126     C        0.62430    0.53000    0.38233    1.000
    H90      H        0.57870    0.55090    0.40080    1.000
    C127     C        0.65035    0.57840    0.32603    1.000
    C128     C        0.71917    0.54760    0.29786    1.000
    H91      H        0.73670    0.57930    0.25930    1.000
    C129     C        0.76072    0.47020    0.32761    1.000
    C130     C        0.73330    0.42230    0.38460    1.000
    H92      H        0.76170    0.37020    0.40450    1.000
    C131     C        0.60142    0.66260    0.29598    1.000
    C132     C        0.83750    0.43410    0.30257    1.000
    C133     C        0.58220    0.39300    0.58160    1.000
    H93      H        0.56540    0.42620    0.61980    1.000
    C134     C        0.60710    0.44410    0.52640    1.000
    H94      H        0.60480    0.50960    0.52650    1.000
    C135     C        0.62400    0.30290    0.46520    1.000
    H95      H        0.63380    0.27110    0.42370    1.000
    C136     C        0.59750    0.25520    0.52270    1.000
    H96      H        0.59120    0.19030    0.51850    1.000
    O33      O        0.00000    0.36600    0.25000    1.000
    O34      O        0.50000    0.86600    0.25000    1.000
    O35      O        0.00000    0.63400    0.75000    1.000
    O36      O        0.50000    0.13400    0.75000    1.000
