# CIF file generated by openbabel 3.1.0, see https://openbabel.org
data_I
_chemical_name_common 'image0'
_cell_length_a 14.206
_cell_length_b 33.308
_cell_length_c 11.587
_cell_angle_alpha 90
_cell_angle_beta 90
_cell_angle_gamma 90
_space_group_name_H-M_alt 'P 1'
_space_group_name_Hall 'P 1'
loop_
    _symmetry_equiv_pos_as_xyz
    x,y,z
loop_
    _atom_site_label
    _atom_site_type_symbol
    _atom_site_fract_x
    _atom_site_fract_y
    _atom_site_fract_z
    _atom_site_occupancy
    V1       V        0.79970    0.13990    0.83600    1.000
    V2       V        0.95760    0.10860    0.68370    1.000
    P1       P        0.64410    0.07340    0.80950    1.000
    P2       P        0.12130    0.17340    0.70430    1.000
    O1       O        0.93530    0.14390    0.81590    1.000
    O2       O        0.70660    0.09980    0.88500    1.000
    O3       O        0.70610    0.05530    0.71030    1.000
    O4       O        0.60510    0.03900    0.87860    1.000
    O5       O        0.81860    0.15030    0.00300    1.000
    O6       O        0.06070    0.14380    0.63480    1.000
    O7       O        0.05750    0.19320    0.79940    1.000
    O8       O        0.15700    0.20540    0.62460    1.000
    O9       O        0.94990    0.09970    0.51650    1.000
    O10      O        0.81990    0.10870    0.69340    1.000
    B1       B        0.00360    0.16660    0.87830    1.000
    V3       V        0.79970    0.63990    0.33600    1.000
    V4       V        0.95760    0.60860    0.18370    1.000
    P3       P        0.64410    0.57340    0.30950    1.000
    P4       P        0.12130    0.67340    0.20430    1.000
    O11      O        0.93530    0.64390    0.31590    1.000
    O12      O        0.70660    0.59980    0.38500    1.000
    O13      O        0.70610    0.55530    0.21030    1.000
    O14      O        0.60510    0.53900    0.37860    1.000
    O15      O        0.81860    0.65030    0.50300    1.000
    O16      O        0.06070    0.64380    0.13480    1.000
    O17      O        0.05750    0.69320    0.29940    1.000
    O18      O        0.15700    0.70540    0.12460    1.000
    O19      O        0.94990    0.59970    0.01650    1.000
    O20      O        0.81990    0.60870    0.19340    1.000
    B2       B        0.00360    0.66660    0.37830    1.000
    V5       V        0.29970    0.13990    0.33600    1.000
    V6       V        0.45760    0.10860    0.18370    1.000
    P5       P        0.14410    0.07340    0.30950    1.000
    P6       P        0.62130    0.17340    0.20430    1.000
    O21      O        0.43530    0.14390    0.31590    1.000
    O22      O        0.20660    0.09980    0.38500    1.000
    O23      O        0.20610    0.05530    0.21030    1.000
    O24      O        0.10510    0.03900    0.37860    1.000
    O25      O        0.31860    0.15030    0.50300    1.000
    O26      O        0.56070    0.14380    0.13480    1.000
    O27      O        0.55750    0.19320    0.29940    1.000
    O28      O        0.65700    0.20540    0.12460    1.000
    O29      O        0.44990    0.09970    0.01650    1.000
    O30      O        0.31990    0.10870    0.19340    1.000
    B3       B        0.50360    0.16660    0.37830    1.000
    V7       V        0.29970    0.63990    0.83600    1.000
    V8       V        0.45760    0.60860    0.68370    1.000
    P7       P        0.14410    0.57340    0.80950    1.000
    P8       P        0.62130    0.67340    0.70430    1.000
    O31      O        0.43530    0.64390    0.81590    1.000
    O32      O        0.20660    0.59980    0.88500    1.000
    O33      O        0.20610    0.55530    0.71030    1.000
    O34      O        0.10510    0.53900    0.87860    1.000
    O35      O        0.31860    0.65030    0.00300    1.000
    O36      O        0.56070    0.64380    0.63480    1.000
    O37      O        0.55750    0.69320    0.79940    1.000
    O38      O        0.65700    0.70540    0.62460    1.000
    O39      O        0.44990    0.59970    0.51650    1.000
    O40      O        0.31990    0.60870    0.69340    1.000
    B4       B        0.50360    0.66660    0.87830    1.000
    V9       V        0.20030    0.86010    0.83600    1.000
    V10      V        0.04240    0.89140    0.68370    1.000
    P9       P        0.35590    0.92660    0.80950    1.000
    P10      P        0.87870    0.82660    0.70430    1.000
    O41      O        0.06470    0.85610    0.81590    1.000
    O42      O        0.29340    0.90020    0.88500    1.000
    O43      O        0.29390    0.94470    0.71030    1.000
    O44      O        0.39490    0.96100    0.87860    1.000
    O45      O        0.18140    0.84970    0.00300    1.000
    O46      O        0.93930    0.85620    0.63480    1.000
    O47      O        0.94250    0.80680    0.79940    1.000
    O48      O        0.84300    0.79460    0.62460    1.000
    O49      O        0.05010    0.90030    0.51650    1.000
    O50      O        0.18010    0.89130    0.69340    1.000
    B5       B        0.99640    0.83340    0.87830    1.000
    V11      V        0.20030    0.36010    0.33600    1.000
    V12      V        0.04240    0.39140    0.18370    1.000
    P11      P        0.35590    0.42660    0.30950    1.000
    P12      P        0.87870    0.32660    0.20430    1.000
    O51      O        0.06470    0.35610    0.31590    1.000
    O52      O        0.29340    0.40020    0.38500    1.000
    O53      O        0.29390    0.44470    0.21030    1.000
    O54      O        0.39490    0.46100    0.37860    1.000
    O55      O        0.18140    0.34970    0.50300    1.000
    O56      O        0.93930    0.35620    0.13480    1.000
    O57      O        0.94250    0.30680    0.29940    1.000
    O58      O        0.84300    0.29460    0.12460    1.000
    O59      O        0.05010    0.40030    0.01650    1.000
    O60      O        0.18010    0.39130    0.19340    1.000
    B6       B        0.99640    0.33340    0.37830    1.000
    V13      V        0.70030    0.86010    0.33600    1.000
    V14      V        0.54240    0.89140    0.18370    1.000
    P13      P        0.85590    0.92660    0.30950    1.000
    P14      P        0.37870    0.82660    0.20430    1.000
    O61      O        0.56470    0.85610    0.31590    1.000
    O62      O        0.79340    0.90020    0.38500    1.000
    O63      O        0.79390    0.94470    0.21030    1.000
    O64      O        0.89490    0.96100    0.37860    1.000
    O65      O        0.68140    0.84970    0.50300    1.000
    O66      O        0.43930    0.85620    0.13480    1.000
    O67      O        0.44250    0.80680    0.29940    1.000
    O68      O        0.34300    0.79460    0.12460    1.000
    O69      O        0.55010    0.90030    0.01650    1.000
    O70      O        0.68010    0.89130    0.19340    1.000
    B7       B        0.49640    0.83340    0.37830    1.000
    V15      V        0.70030    0.36010    0.83600    1.000
    V16      V        0.54240    0.39140    0.68370    1.000
    P15      P        0.85590    0.42660    0.80950    1.000
    P16      P        0.37870    0.32660    0.70430    1.000
    O71      O        0.56470    0.35610    0.81590    1.000
    O72      O        0.79340    0.40020    0.88500    1.000
    O73      O        0.79390    0.44470    0.71030    1.000
    O74      O        0.89490    0.46100    0.87860    1.000
    O75      O        0.68140    0.34970    0.00300    1.000
    O76      O        0.43930    0.35620    0.63480    1.000
    O77      O        0.44250    0.30680    0.79940    1.000
    O78      O        0.34300    0.29460    0.62460    1.000
    O79      O        0.55010    0.40030    0.51650    1.000
    O80      O        0.68010    0.39130    0.69340    1.000
    B8       B        0.49640    0.33340    0.87830    1.000
    V17      V        0.04970    0.11010    0.08600    1.000
    V18      V        0.20760    0.14140    0.93370    1.000
    P17      P        0.89410    0.17660    0.05950    1.000
    P18      P        0.37130    0.07660    0.95430    1.000
    O81      O        0.18530    0.10610    0.06590    1.000
    O82      O        0.95660    0.15020    0.13500    1.000
    O83      O        0.95610    0.19470    0.96030    1.000
    O84      O        0.85510    0.21100    0.12860    1.000
    O85      O        0.06860    0.09970    0.25300    1.000
    O86      O        0.31070    0.10620    0.88480    1.000
    O87      O        0.30750    0.05680    0.04940    1.000
    O88      O        0.40700    0.04460    0.87460    1.000
    O89      O        0.19990    0.15030    0.76650    1.000
    O90      O        0.06990    0.14130    0.94340    1.000
    B9       B        0.25360    0.08340    0.12830    1.000
    V19      V        0.04970    0.61010    0.58600    1.000
    V20      V        0.20760    0.64140    0.43370    1.000
    P19      P        0.89410    0.67660    0.55950    1.000
    P20      P        0.37130    0.57660    0.45430    1.000
    O91      O        0.18530    0.60610    0.56590    1.000
    O92      O        0.95660    0.65020    0.63500    1.000
    O93      O        0.95610    0.69470    0.46030    1.000
    O94      O        0.85510    0.71100    0.62860    1.000
    O95      O        0.06860    0.59970    0.75300    1.000
    O96      O        0.31070    0.60620    0.38480    1.000
    O97      O        0.30750    0.55680    0.54940    1.000
    O98      O        0.40700    0.54460    0.37460    1.000
    O99      O        0.19990    0.65030    0.26650    1.000
    O100     O        0.06990    0.64130    0.44340    1.000
    B10      B        0.25360    0.58340    0.62830    1.000
    V21      V        0.54970    0.11010    0.58600    1.000
    V22      V        0.70760    0.14140    0.43370    1.000
    P21      P        0.39410    0.17660    0.55950    1.000
    P22      P        0.87130    0.07660    0.45430    1.000
    O101     O        0.68530    0.10610    0.56590    1.000
    O102     O        0.45660    0.15020    0.63500    1.000
    O103     O        0.45610    0.19470    0.46030    1.000
    O104     O        0.35510    0.21100    0.62860    1.000
    O105     O        0.56860    0.09970    0.75300    1.000
    O106     O        0.81070    0.10620    0.38480    1.000
    O107     O        0.80750    0.05680    0.54940    1.000
    O108     O        0.90700    0.04460    0.37460    1.000
    O109     O        0.69990    0.15030    0.26650    1.000
    O110     O        0.56990    0.14130    0.44340    1.000
    B11      B        0.75360    0.08340    0.62830    1.000
    V23      V        0.54970    0.61010    0.08600    1.000
    V24      V        0.70760    0.64140    0.93370    1.000
    P23      P        0.39410    0.67660    0.05950    1.000
    P24      P        0.87130    0.57660    0.95430    1.000
    O111     O        0.68530    0.60610    0.06590    1.000
    O112     O        0.45660    0.65020    0.13500    1.000
    O113     O        0.45610    0.69470    0.96030    1.000
    O114     O        0.35510    0.71100    0.12860    1.000
    O115     O        0.56860    0.59970    0.25300    1.000
    O116     O        0.81070    0.60620    0.88480    1.000
    O117     O        0.80750    0.55680    0.04940    1.000
    O118     O        0.90700    0.54460    0.87460    1.000
    O119     O        0.69990    0.65030    0.76650    1.000
    O120     O        0.56990    0.64130    0.94340    1.000
    B12      B        0.75360    0.58340    0.12830    1.000
    V25      V        0.45030    0.38990    0.08600    1.000
    V26      V        0.29240    0.35860    0.93370    1.000
    P25      P        0.60590    0.32340    0.05950    1.000
    P26      P        0.12870    0.42340    0.95430    1.000
    O121     O        0.31470    0.39390    0.06590    1.000
    O122     O        0.54340    0.34980    0.13500    1.000
    O123     O        0.54390    0.30530    0.96030    1.000
    O124     O        0.64490    0.28900    0.12860    1.000
    O125     O        0.43140    0.40030    0.25300    1.000
    O126     O        0.18930    0.39380    0.88480    1.000
    O127     O        0.19250    0.44320    0.04940    1.000
    O128     O        0.09300    0.45540    0.87460    1.000
    O129     O        0.30010    0.34970    0.76650    1.000
    O130     O        0.43010    0.35870    0.94340    1.000
    B13      B        0.24640    0.41660    0.12830    1.000
    V27      V        0.45030    0.88990    0.58600    1.000
    V28      V        0.29240    0.85860    0.43370    1.000
    P27      P        0.60590    0.82340    0.55950    1.000
    P28      P        0.12870    0.92340    0.45430    1.000
    O131     O        0.31470    0.89390    0.56590    1.000
    O132     O        0.54340    0.84980    0.63500    1.000
    O133     O        0.54390    0.80530    0.46030    1.000
    O134     O        0.64490    0.78900    0.62860    1.000
    O135     O        0.43140    0.90030    0.75300    1.000
    O136     O        0.18930    0.89380    0.38480    1.000
    O137     O        0.19250    0.94320    0.54940    1.000
    O138     O        0.09300    0.95540    0.37460    1.000
    O139     O        0.30010    0.84970    0.26650    1.000
    O140     O        0.43010    0.85870    0.44340    1.000
    B14      B        0.24640    0.91660    0.62830    1.000
    V29      V        0.95030    0.38990    0.58600    1.000
    V30      V        0.79240    0.35860    0.43370    1.000
    P29      P        0.10590    0.32340    0.55950    1.000
    P30      P        0.62870    0.42340    0.45430    1.000
    O141     O        0.81470    0.39390    0.56590    1.000
    O142     O        0.04340    0.34980    0.63500    1.000
    O143     O        0.04390    0.30530    0.46030    1.000
    O144     O        0.14490    0.28900    0.62860    1.000
    O145     O        0.93140    0.40030    0.75300    1.000
    O146     O        0.68930    0.39380    0.38480    1.000
    O147     O        0.69250    0.44320    0.54940    1.000
    O148     O        0.59300    0.45540    0.37460    1.000
    O149     O        0.80010    0.34970    0.26650    1.000
    O150     O        0.93010    0.35870    0.44340    1.000
    B15      B        0.74640    0.41660    0.62830    1.000
    V31      V        0.95030    0.88990    0.08600    1.000
    V32      V        0.79240    0.85860    0.93370    1.000
    P31      P        0.10590    0.82340    0.05950    1.000
    P32      P        0.62870    0.92340    0.95430    1.000
    O151     O        0.81470    0.89390    0.06590    1.000
    O152     O        0.04340    0.84980    0.13500    1.000
    O153     O        0.04390    0.80530    0.96030    1.000
    O154     O        0.14490    0.78900    0.12860    1.000
    O155     O        0.93140    0.90030    0.25300    1.000
    O156     O        0.68930    0.89380    0.88480    1.000
    O157     O        0.69250    0.94320    0.04940    1.000
    O158     O        0.59300    0.95540    0.87460    1.000
    O159     O        0.80010    0.84970    0.76650    1.000
    O160     O        0.93010    0.85870    0.94340    1.000
    B16      B        0.74640    0.91660    0.12830    1.000
    V33      V        0.50000    0.00000    0.90200    1.000
    V34      V        0.50000    0.50000    0.40200    1.000
    V35      V        0.00000    0.00000    0.40200    1.000
    V36      V        0.00000    0.50000    0.90200    1.000
    V37      V        0.75000    0.25000    0.15200    1.000
    V38      V        0.75000    0.75000    0.65200    1.000
    V39      V        0.25000    0.25000    0.65200    1.000
    V40      V        0.25000    0.75000    0.15200    1.000
