# CIF file generated by openbabel 3.1.0, see https://openbabel.org
data_I
_chemical_name_common 'LEDCAA_clean'
_cell_length_a 13.168
_cell_length_b 24.39
_cell_length_c 15.891
_cell_angle_alpha 90
_cell_angle_beta 90
_cell_angle_gamma 90
_space_group_name_H-M_alt 'P 1'
_space_group_name_Hall 'P 1'
loop_
    _symmetry_equiv_pos_as_xyz
    x,y,z
loop_
    _atom_site_label
    _atom_site_type_symbol
    _atom_site_fract_x
    _atom_site_fract_y
    _atom_site_fract_z
    _atom_site_occupancy
    Cd1      Cd       0.89816    0.72754    0.98623    1.000
    Cd2      Cd       0.78599    0.47529    0.11054    1.000
    Cd3      Cd       0.60184    0.77246    0.48623    1.000
    Cd4      Cd       0.71401    0.02471    0.61054    1.000
    Cd5      Cd       0.89816    0.27246    0.51377    1.000
    Cd6      Cd       0.78599    0.52471    0.38946    1.000
    Cd7      Cd       0.60184    0.22754    0.01377    1.000
    Cd8      Cd       0.71401    0.97529    0.88946    1.000
    Cd9      Cd       0.10184    0.27246    0.01377    1.000
    Cd10     Cd       0.21401    0.52471    0.88946    1.000
    Cd11     Cd       0.39816    0.22754    0.51377    1.000
    Cd12     Cd       0.28599    0.97529    0.38946    1.000
    Cd13     Cd       0.10184    0.72754    0.48623    1.000
    Cd14     Cd       0.21401    0.47529    0.61054    1.000
    Cd15     Cd       0.39816    0.77246    0.98623    1.000
    Cd16     Cd       0.28599    0.02471    0.11054    1.000
    H1       H        0.90140    0.75330    0.77360    1.000
    H2       H        0.61840    0.70300    0.99810    1.000
    H3       H        0.88220    0.07470    0.83440    1.000
    H4       H        0.88800    0.64540    0.31800    1.000
    H5       H        0.05170    0.09500    0.83350    1.000
    H6       H        0.10670    0.94150    0.91400    1.000
    H7       H        0.16820    0.02680    0.87270    1.000
    H8       H        0.80000    0.57510    0.76870    1.000
    H9       H        0.86120    0.71410    0.64750    1.000
    H10      H        0.81760    0.62280    0.64300    1.000
    H11      H        0.59860    0.74670    0.27360    1.000
    H12      H        0.88160    0.79700    0.49810    1.000
    H13      H        0.61780    0.42530    0.33440    1.000
    H14      H        0.61200    0.85460    0.81800    1.000
    H15      H        0.44830    0.40500    0.33350    1.000
    H16      H        0.39330    0.55850    0.41400    1.000
    H17      H        0.33180    0.47320    0.37270    1.000
    H18      H        0.70000    0.92490    0.26870    1.000
    H19      H        0.63880    0.78590    0.14750    1.000
    H20      H        0.68240    0.87720    0.14300    1.000
    H21      H        0.90140    0.24670    0.72640    1.000
    H22      H        0.61840    0.29700    0.50190    1.000
    H23      H        0.88220    0.92530    0.66560    1.000
    H24      H        0.88800    0.35460    0.18200    1.000
    H25      H        0.05170    0.90500    0.66650    1.000
    H26      H        0.10670    0.05850    0.58600    1.000
    H27      H        0.16820    0.97320    0.62730    1.000
    H28      H        0.80000    0.42490    0.73130    1.000
    H29      H        0.86120    0.28590    0.85250    1.000
    H30      H        0.81760    0.37720    0.85700    1.000
    H31      H        0.59860    0.25330    0.22640    1.000
    H32      H        0.88160    0.20300    0.00190    1.000
    H33      H        0.61780    0.57470    0.16560    1.000
    H34      H        0.61200    0.14540    0.68200    1.000
    H35      H        0.44830    0.59500    0.16650    1.000
    H36      H        0.39330    0.44150    0.08600    1.000
    H37      H        0.33180    0.52680    0.12730    1.000
    H38      H        0.70000    0.07510    0.23130    1.000
    H39      H        0.63880    0.21410    0.35250    1.000
    H40      H        0.68240    0.12280    0.35700    1.000
    H41      H        0.09860    0.24670    0.22640    1.000
    H42      H        0.38160    0.29700    0.00190    1.000
    H43      H        0.11780    0.92530    0.16560    1.000
    H44      H        0.11200    0.35460    0.68200    1.000
    H45      H        0.94830    0.90500    0.16650    1.000
    H46      H        0.89330    0.05850    0.08600    1.000
    H47      H        0.83180    0.97320    0.12730    1.000
    H48      H        0.20000    0.42490    0.23130    1.000
    H49      H        0.13880    0.28590    0.35250    1.000
    H50      H        0.18240    0.37720    0.35700    1.000
    H51      H        0.40140    0.25330    0.72640    1.000
    H52      H        0.11840    0.20300    0.50190    1.000
    H53      H        0.38220    0.57470    0.66560    1.000
    H54      H        0.38800    0.14540    0.18200    1.000
    H55      H        0.55170    0.59500    0.66650    1.000
    H56      H        0.60670    0.44150    0.58600    1.000
    H57      H        0.66820    0.52680    0.62730    1.000
    H58      H        0.30000    0.07510    0.73130    1.000
    H59      H        0.36120    0.21410    0.85250    1.000
    H60      H        0.31760    0.12280    0.85700    1.000
    H61      H        0.09860    0.75330    0.27360    1.000
    H62      H        0.38160    0.70300    0.49810    1.000
    H63      H        0.11780    0.07470    0.33440    1.000
    H64      H        0.11200    0.64540    0.81800    1.000
    H65      H        0.94830    0.09500    0.33350    1.000
    H66      H        0.89330    0.94150    0.41400    1.000
    H67      H        0.83180    0.02680    0.37270    1.000
    H68      H        0.20000    0.57510    0.26870    1.000
    H69      H        0.13880    0.71410    0.14750    1.000
    H70      H        0.18240    0.62280    0.14300    1.000
    H71      H        0.40140    0.74670    0.77360    1.000
    H72      H        0.11840    0.79700    0.99810    1.000
    H73      H        0.38220    0.42530    0.83440    1.000
    H74      H        0.38800    0.85460    0.31800    1.000
    H75      H        0.55170    0.40500    0.83350    1.000
    H76      H        0.60670    0.55850    0.91400    1.000
    H77      H        0.66820    0.47320    0.87270    1.000
    H78      H        0.30000    0.92490    0.76870    1.000
    H79      H        0.36120    0.78590    0.64750    1.000
    H80      H        0.31760    0.87720    0.64300    1.000
    C1       C        0.87990    0.71700    0.77270    1.000
    C2       C        0.71890    0.81219    0.96940    1.000
    C3       C        0.84600    0.59982    0.14700    1.000
    C4       C        0.83780    0.59607    0.05600    1.000
    C5       C        0.83490    0.60978    0.92550    1.000
    C6       C        0.84330    0.63780    0.84320    1.000
    C7       C        0.63580    0.73950    0.98920    1.000
    C8       C        0.95770    0.96020    0.89660    1.000
    C9       C        0.80850    0.84634    0.95320    1.000
    C10      C        0.91350    0.90688    0.92170    1.000
    C11      C        0.92780    0.04770    0.85090    1.000
    C12      C        0.87070    0.62460    0.27110    1.000
    C13      C        0.02960    0.06040    0.84970    1.000
    C14      C        0.06240    0.96910    0.89750    1.000
    C15      C        0.09880    0.01980    0.87320    1.000
    C16      C        0.82090    0.61150    0.76870    1.000
    C17      C        0.85760    0.69360    0.69670    1.000
    C18      C        0.83010    0.64000    0.69420    1.000
    C19      C        0.62010    0.78300    0.27270    1.000
    C20      C        0.78110    0.68781    0.46940    1.000
    C21      C        0.65400    0.90018    0.64700    1.000
    C22      C        0.66220    0.90393    0.55600    1.000
    C23      C        0.66510    0.89022    0.42550    1.000
    C24      C        0.65670    0.86220    0.34320    1.000
    C25      C        0.86420    0.76050    0.48920    1.000
    C26      C        0.54230    0.53980    0.39660    1.000
    C27      C        0.69150    0.65366    0.45320    1.000
    C28      C        0.58650    0.59312    0.42170    1.000
    C29      C        0.57220    0.45230    0.35090    1.000
    C30      C        0.62930    0.87540    0.77110    1.000
    C31      C        0.47040    0.43960    0.34970    1.000
    C32      C        0.43760    0.53090    0.39750    1.000
    C33      C        0.40120    0.48020    0.37320    1.000
    C34      C        0.67910    0.88850    0.26870    1.000
    C35      C        0.64240    0.80640    0.19670    1.000
    C36      C        0.66990    0.86000    0.19420    1.000
    C37      C        0.87990    0.28300    0.72730    1.000
    C38      C        0.71890    0.18781    0.53060    1.000
    C39      C        0.84600    0.40018    0.35300    1.000
    C40      C        0.83780    0.40393    0.44400    1.000
    C41      C        0.83490    0.39022    0.57450    1.000
    C42      C        0.84330    0.36220    0.65680    1.000
    C43      C        0.63580    0.26050    0.51080    1.000
    C44      C        0.95770    0.03980    0.60340    1.000
    C45      C        0.80850    0.15366    0.54680    1.000
    C46      C        0.91350    0.09312    0.57830    1.000
    C47      C        0.92780    0.95230    0.64910    1.000
    C48      C        0.87070    0.37540    0.22890    1.000
    C49      C        0.02960    0.93960    0.65030    1.000
    C50      C        0.06240    0.03090    0.60250    1.000
    C51      C        0.09880    0.98020    0.62680    1.000
    C52      C        0.82090    0.38850    0.73130    1.000
    C53      C        0.85760    0.30640    0.80330    1.000
    C54      C        0.83010    0.36000    0.80580    1.000
    C55      C        0.62010    0.21700    0.22730    1.000
    C56      C        0.78110    0.31219    0.03060    1.000
    C57      C        0.65400    0.09982    0.85300    1.000
    C58      C        0.66220    0.09607    0.94400    1.000
    C59      C        0.66510    0.10978    0.07450    1.000
    C60      C        0.65670    0.13780    0.15680    1.000
    C61      C        0.86420    0.23950    0.01080    1.000
    C62      C        0.54230    0.46020    0.10340    1.000
    C63      C        0.69150    0.34634    0.04680    1.000
    C64      C        0.58650    0.40688    0.07830    1.000
    C65      C        0.57220    0.54770    0.14910    1.000
    C66      C        0.62930    0.12460    0.72890    1.000
    C67      C        0.47040    0.56040    0.15030    1.000
    C68      C        0.43760    0.46910    0.10250    1.000
    C69      C        0.40120    0.51980    0.12680    1.000
    C70      C        0.67910    0.11150    0.23130    1.000
    C71      C        0.64240    0.19360    0.30330    1.000
    C72      C        0.66990    0.14000    0.30580    1.000
    C73      C        0.12010    0.28300    0.22730    1.000
    C74      C        0.28110    0.18781    0.03060    1.000
    C75      C        0.15400    0.40018    0.85300    1.000
    C76      C        0.16220    0.40393    0.94400    1.000
    C77      C        0.16510    0.39022    0.07450    1.000
    C78      C        0.15670    0.36220    0.15680    1.000
    C79      C        0.36420    0.26050    0.01080    1.000
    C80      C        0.04230    0.03980    0.10340    1.000
    C81      C        0.19150    0.15366    0.04680    1.000
    C82      C        0.08650    0.09312    0.07830    1.000
    C83      C        0.07220    0.95230    0.14910    1.000
    C84      C        0.12930    0.37540    0.72890    1.000
    C85      C        0.97040    0.93960    0.15030    1.000
    C86      C        0.93760    0.03090    0.10250    1.000
    C87      C        0.90120    0.98020    0.12680    1.000
    C88      C        0.17910    0.38850    0.23130    1.000
    C89      C        0.14240    0.30640    0.30330    1.000
    C90      C        0.16990    0.36000    0.30580    1.000
    C91      C        0.37990    0.21700    0.72730    1.000
    C92      C        0.21890    0.31219    0.53060    1.000
    C93      C        0.34600    0.09982    0.35300    1.000
    C94      C        0.33780    0.09607    0.44400    1.000
    C95      C        0.33490    0.10978    0.57450    1.000
    C96      C        0.34330    0.13780    0.65680    1.000
    C97      C        0.13580    0.23950    0.51080    1.000
    C98      C        0.45770    0.46020    0.60340    1.000
    C99      C        0.30850    0.34634    0.54680    1.000
    C100     C        0.41350    0.40688    0.57830    1.000
    C101     C        0.42780    0.54770    0.64910    1.000
    C102     C        0.37070    0.12460    0.22890    1.000
    C103     C        0.52960    0.56040    0.65030    1.000
    C104     C        0.56240    0.46910    0.60250    1.000
    C105     C        0.59880    0.51980    0.62680    1.000
    C106     C        0.32090    0.11150    0.73130    1.000
    C107     C        0.35760    0.19360    0.80330    1.000
    C108     C        0.33010    0.14000    0.80580    1.000
    C109     C        0.12010    0.71700    0.27270    1.000
    C110     C        0.28110    0.81219    0.46940    1.000
    C111     C        0.15400    0.59982    0.64700    1.000
    C112     C        0.16220    0.59607    0.55600    1.000
    C113     C        0.16510    0.60978    0.42550    1.000
    C114     C        0.15670    0.63780    0.34320    1.000
    C115     C        0.36420    0.73950    0.48920    1.000
    C116     C        0.04230    0.96020    0.39660    1.000
    C117     C        0.19150    0.84634    0.45320    1.000
    C118     C        0.08650    0.90688    0.42170    1.000
    C119     C        0.07220    0.04770    0.35090    1.000
    C120     C        0.12930    0.62460    0.77110    1.000
    C121     C        0.97040    0.06040    0.34970    1.000
    C122     C        0.93760    0.96910    0.39750    1.000
    C123     C        0.90120    0.01980    0.37320    1.000
    C124     C        0.17910    0.61150    0.26870    1.000
    C125     C        0.14240    0.69360    0.19670    1.000
    C126     C        0.16990    0.64000    0.19420    1.000
    C127     C        0.37990    0.78300    0.77270    1.000
    C128     C        0.21890    0.68781    0.96940    1.000
    C129     C        0.34600    0.90018    0.14700    1.000
    C130     C        0.33780    0.90393    0.05600    1.000
    C131     C        0.33490    0.89022    0.92550    1.000
    C132     C        0.34330    0.86220    0.84320    1.000
    C133     C        0.13580    0.76050    0.98920    1.000
    C134     C        0.45770    0.53980    0.89660    1.000
    C135     C        0.30850    0.65366    0.95320    1.000
    C136     C        0.41350    0.59312    0.92170    1.000
    C137     C        0.42780    0.45230    0.85090    1.000
    C138     C        0.37070    0.87540    0.27110    1.000
    C139     C        0.52960    0.43960    0.84970    1.000
    C140     C        0.56240    0.53090    0.89750    1.000
    C141     C        0.59880    0.48020    0.87320    1.000
    C142     C        0.32090    0.88850    0.76870    1.000
    C143     C        0.35760    0.80640    0.69670    1.000
    C144     C        0.33010    0.86000    0.69420    1.000
    N1       N        0.73200    0.75730    0.98190    1.000
    N2       N        0.81000    0.55767    0.93520    1.000
    N3       N        0.81160    0.54866    0.02040    1.000
    N4       N        0.85290    0.63618    0.99940    1.000
    N5       N        0.87220    0.69007    0.84630    1.000
    N6       N        0.56760    0.77994    0.98230    1.000
    N7       N        0.62210    0.82726    0.96990    1.000
    N8       N        0.89970    0.82175    0.95140    1.000
    N9       N        0.83980    0.57308    0.27570    1.000
    N10      N        0.81260    0.89985    0.93440    1.000
    N11      N        0.82610    0.55662    0.19400    1.000
    N12      N        0.89000    0.99901    0.87440    1.000
    N13      N        0.96880    0.86178    0.93130    1.000
    N14      N        0.87470    0.64409    0.19150    1.000
    N15      N        0.76800    0.74270    0.48190    1.000
    N16      N        0.69000    0.94233    0.43520    1.000
    N17      N        0.68840    0.95134    0.52040    1.000
    N18      N        0.64710    0.86382    0.49940    1.000
    N19      N        0.62780    0.80993    0.34630    1.000
    N20      N        0.93240    0.72006    0.48230    1.000
    N21      N        0.87790    0.67274    0.46990    1.000
    N22      N        0.60030    0.67825    0.45140    1.000
    N23      N        0.66020    0.92692    0.77570    1.000
    N24      N        0.68740    0.60015    0.43440    1.000
    N25      N        0.67390    0.94338    0.69400    1.000
    N26      N        0.61000    0.50099    0.37440    1.000
    N27      N        0.53120    0.63822    0.43130    1.000
    N28      N        0.62530    0.85591    0.69150    1.000
    N29      N        0.73200    0.24270    0.51810    1.000
    N30      N        0.81000    0.44233    0.56480    1.000
    N31      N        0.81160    0.45134    0.47960    1.000
    N32      N        0.85290    0.36382    0.50060    1.000
    N33      N        0.87220    0.30993    0.65370    1.000
    N34      N        0.56760    0.22006    0.51770    1.000
    N35      N        0.62210    0.17274    0.53010    1.000
    N36      N        0.89970    0.17825    0.54860    1.000
    N37      N        0.83980    0.42692    0.22430    1.000
    N38      N        0.81260    0.10015    0.56560    1.000
    N39      N        0.82610    0.44338    0.30600    1.000
    N40      N        0.89000    0.00099    0.62560    1.000
    N41      N        0.96880    0.13822    0.56870    1.000
    N42      N        0.87470    0.35591    0.30850    1.000
    N43      N        0.76800    0.25730    0.01810    1.000
    N44      N        0.69000    0.05767    0.06480    1.000
    N45      N        0.68840    0.04866    0.97960    1.000
    N46      N        0.64710    0.13618    0.00060    1.000
    N47      N        0.62780    0.19007    0.15370    1.000
    N48      N        0.93240    0.27994    0.01770    1.000
    N49      N        0.87790    0.32726    0.03010    1.000
    N50      N        0.60030    0.32175    0.04860    1.000
    N51      N        0.66020    0.07308    0.72430    1.000
    N52      N        0.68740    0.39985    0.06560    1.000
    N53      N        0.67390    0.05662    0.80600    1.000
    N54      N        0.61000    0.49901    0.12560    1.000
    N55      N        0.53120    0.36178    0.06870    1.000
    N56      N        0.62530    0.14409    0.80850    1.000
    N57      N        0.26800    0.24270    0.01810    1.000
    N58      N        0.19000    0.44233    0.06480    1.000
    N59      N        0.18840    0.45134    0.97960    1.000
    N60      N        0.14710    0.36382    0.00060    1.000
    N61      N        0.12780    0.30993    0.15370    1.000
    N62      N        0.43240    0.22006    0.01770    1.000
    N63      N        0.37790    0.17274    0.03010    1.000
    N64      N        0.10030    0.17825    0.04860    1.000
    N65      N        0.16020    0.42692    0.72430    1.000
    N66      N        0.18740    0.10015    0.06560    1.000
    N67      N        0.17390    0.44338    0.80600    1.000
    N68      N        0.11000    0.00099    0.12560    1.000
    N69      N        0.03120    0.13822    0.06870    1.000
    N70      N        0.12530    0.35591    0.80850    1.000
    N71      N        0.23200    0.25730    0.51810    1.000
    N72      N        0.31000    0.05767    0.56480    1.000
    N73      N        0.31160    0.04866    0.47960    1.000
    N74      N        0.35290    0.13618    0.50060    1.000
    N75      N        0.37220    0.19007    0.65370    1.000
    N76      N        0.06760    0.27994    0.51770    1.000
    N77      N        0.12210    0.32726    0.53010    1.000
    N78      N        0.39970    0.32175    0.54860    1.000
    N79      N        0.33980    0.07308    0.22430    1.000
    N80      N        0.31260    0.39985    0.56560    1.000
    N81      N        0.32610    0.05662    0.30600    1.000
    N82      N        0.39000    0.49901    0.62560    1.000
    N83      N        0.46880    0.36178    0.56870    1.000
    N84      N        0.37470    0.14409    0.30850    1.000
    N85      N        0.26800    0.75730    0.48190    1.000
    N86      N        0.19000    0.55767    0.43520    1.000
    N87      N        0.18840    0.54866    0.52040    1.000
    N88      N        0.14710    0.63618    0.49940    1.000
    N89      N        0.12780    0.69007    0.34630    1.000
    N90      N        0.43240    0.77994    0.48230    1.000
    N91      N        0.37790    0.82726    0.46990    1.000
    N92      N        0.10030    0.82175    0.45140    1.000
    N93      N        0.16020    0.57308    0.77570    1.000
    N94      N        0.18740    0.89985    0.43440    1.000
    N95      N        0.17390    0.55662    0.69400    1.000
    N96      N        0.11000    0.99901    0.37440    1.000
    N97      N        0.03120    0.86178    0.43130    1.000
    N98      N        0.12530    0.64409    0.69150    1.000
    N99      N        0.23200    0.74270    0.98190    1.000
    N100     N        0.31000    0.94233    0.93520    1.000
    N101     N        0.31160    0.95134    0.02040    1.000
    N102     N        0.35290    0.86382    0.99940    1.000
    N103     N        0.37220    0.80993    0.84630    1.000
    N104     N        0.06760    0.72006    0.98230    1.000
    N105     N        0.12210    0.67274    0.96990    1.000
    N106     N        0.39970    0.67825    0.95140    1.000
    N107     N        0.33980    0.92692    0.27570    1.000
    N108     N        0.31260    0.60015    0.93440    1.000
    N109     N        0.32610    0.94338    0.19400    1.000
    N110     N        0.39000    0.50099    0.87440    1.000
    N111     N        0.46880    0.63822    0.93130    1.000
    N112     N        0.37470    0.85591    0.19150    1.000
