# CIF file generated by openbabel 3.1.0, see https://openbabel.org
data_I
_chemical_name_common 'image0'
_cell_length_a 20.4489
_cell_length_b 20.4489
_cell_length_c 10.3928
_cell_angle_alpha 90
_cell_angle_beta 90
_cell_angle_gamma 120
_space_group_name_H-M_alt 'P 1'
_space_group_name_Hall 'P 1'
loop_
    _symmetry_equiv_pos_as_xyz
    x,y,z
loop_
    _atom_site_label
    _atom_site_type_symbol
    _atom_site_fract_x
    _atom_site_fract_y
    _atom_site_fract_z
    _atom_site_occupancy
    Mn1      Mn       0.61951    0.16515    0.49100    1.000
    O1       O        0.42414    0.75874    0.00266    1.000
    O2       O        0.51577    0.90422    0.96983    1.000
    C1       C        0.61570    0.15359    0.77570    1.000
    C2       C        0.55401    0.98188    0.98810    1.000
    C3       C        0.49281    0.78042    0.01160    1.000
    C4       C        0.56942    0.02681    0.88030    1.000
    H1       H        0.55870    0.00510    0.79880    1.000
    O3       O        0.63410    0.19155    0.27162    1.000
    O4       O        0.51966    0.73742    0.01760    1.000
    C5       C        0.57133    0.01291    0.11020    1.000
    H2       H        0.56160    0.98230    0.18210    1.000
    C6       C        0.61766    0.12377    0.25650    1.000
    C7       C        0.61814    0.13620    0.01570    1.000
    H3       H        0.63960    0.18810    0.02560    1.000
    C8       C        0.60130    0.10543    0.89390    1.000
    O5       O        0.59863    0.11666    0.67057    1.000
    C9       C        0.60371    0.09113    0.12380    1.000
    O6       O        0.61036    0.08228    0.35168    1.000
    O7       O        0.64123    0.22165    0.78750    1.000
    C10      C        0.54985    0.86399    0.02270    1.000
    H4       H        0.54880    0.87290    0.11520    1.000
    C11      C        0.62600    0.88700    0.00260    1.000
    H5       H        0.65600    0.94060    0.01400    1.000
    H6       H        0.63260    0.87390    0.91680    1.000
    H7       H        0.64160    0.86210    0.06330    1.000
    Mn2      Mn       0.83485    0.45435    0.49100    1.000
    O8       O        0.24126    0.66540    0.00266    1.000
    O9       O        0.09578    0.61155    0.96983    1.000
    C12      C        0.84641    0.46211    0.77570    1.000
    C13      C        0.01812    0.57213    0.98810    1.000
    C14      C        0.21958    0.71239    0.01160    1.000
    C15      C        0.97319    0.54261    0.88030    1.000
    H8       H        0.99490    0.55360    0.79880    1.000
    O10      O        0.80845    0.44255    0.27162    1.000
    O11      O        0.26258    0.78224    0.01760    1.000
    C16      C        0.98709    0.55842    0.11020    1.000
    H9       H        0.01770    0.57930    0.18210    1.000
    C17      C        0.87623    0.49389    0.25650    1.000
    C18      C        0.86380    0.48194    0.01570    1.000
    H10      H        0.81190    0.45150    0.02560    1.000
    C19      C        0.89457    0.49587    0.89390    1.000
    O12      O        0.88334    0.48197    0.67057    1.000
    C20      C        0.90887    0.51258    0.12380    1.000
    O13      O        0.91772    0.52808    0.35168    1.000
    O14      O        0.77835    0.41958    0.78750    1.000
    C21      C        0.13601    0.68586    0.02270    1.000
    H11      H        0.12710    0.67590    0.11520    1.000
    C22      C        0.11300    0.73900    0.00260    1.000
    H12      H        0.05940    0.71540    0.01400    1.000
    H13      H        0.12610    0.75870    0.91680    1.000
    H14      H        0.13790    0.77950    0.06330    1.000
    Mn3      Mn       0.54565    0.38049    0.49100    1.000
    O15      O        0.33460    0.57586    0.00266    1.000
    O16      O        0.38845    0.48423    0.96983    1.000
    C23      C        0.53789    0.38430    0.77570    1.000
    C24      C        0.42787    0.44599    0.98810    1.000
    C25      C        0.28761    0.50719    0.01160    1.000
    C26      C        0.45739    0.43058    0.88030    1.000
    H15      H        0.44640    0.44130    0.79880    1.000
    O17      O        0.55745    0.36590    0.27162    1.000
    O18      O        0.21776    0.48034    0.01760    1.000
    C27      C        0.44158    0.42867    0.11020    1.000
    H16      H        0.42070    0.43840    0.18210    1.000
    C28      C        0.50611    0.38234    0.25650    1.000
    C29      C        0.51806    0.38186    0.01570    1.000
    H17      H        0.54850    0.36040    0.02560    1.000
    C30      C        0.50413    0.39870    0.89390    1.000
    O19      O        0.51803    0.40137    0.67057    1.000
    C31      C        0.48742    0.39629    0.12380    1.000
    O20      O        0.47192    0.38964    0.35168    1.000
    O21      O        0.58042    0.35877    0.78750    1.000
    C32      C        0.31414    0.45015    0.02270    1.000
    H18      H        0.32410    0.45120    0.11520    1.000
    C33      C        0.26100    0.37400    0.00260    1.000
    H19      H        0.28460    0.34400    0.01400    1.000
    H20      H        0.24130    0.36740    0.91680    1.000
    H21      H        0.22050    0.35840    0.06330    1.000
    Mn4      Mn       0.38049    0.83485    0.99100    1.000
    O22      O        0.57586    0.24126    0.50266    1.000
    O23      O        0.48423    0.09578    0.46983    1.000
    C34      C        0.38430    0.84641    0.27570    1.000
    C35      C        0.44599    0.01812    0.48810    1.000
    C36      C        0.50719    0.21958    0.51160    1.000
    C37      C        0.43058    0.97319    0.38030    1.000
    H22      H        0.44130    0.99490    0.29880    1.000
    O24      O        0.36590    0.80845    0.77162    1.000
    O25      O        0.48034    0.26258    0.51760    1.000
    C38      C        0.42867    0.98709    0.61020    1.000
    H23      H        0.43840    0.01770    0.68210    1.000
    C39      C        0.38234    0.87623    0.75650    1.000
    C40      C        0.38186    0.86380    0.51570    1.000
    H24      H        0.36040    0.81190    0.52560    1.000
    C41      C        0.39870    0.89457    0.39390    1.000
    O26      O        0.40137    0.88334    0.17057    1.000
    C42      C        0.39629    0.90887    0.62380    1.000
    O27      O        0.38964    0.91772    0.85168    1.000
    O28      O        0.35877    0.77835    0.28750    1.000
    C43      C        0.45015    0.13601    0.52270    1.000
    H25      H        0.45120    0.12710    0.61520    1.000
    C44      C        0.37400    0.11300    0.50260    1.000
    H26      H        0.34400    0.05940    0.51400    1.000
    H27      H        0.36740    0.12610    0.41680    1.000
    H28      H        0.35840    0.13790    0.56330    1.000
    Mn5      Mn       0.16515    0.54565    0.99100    1.000
    O29      O        0.75874    0.33460    0.50266    1.000
    O30      O        0.90422    0.38845    0.46983    1.000
    C45      C        0.15359    0.53789    0.27570    1.000
    C46      C        0.98188    0.42787    0.48810    1.000
    C47      C        0.78042    0.28761    0.51160    1.000
    C48      C        0.02681    0.45739    0.38030    1.000
    H29      H        0.00510    0.44640    0.29880    1.000
    O31      O        0.19155    0.55745    0.77162    1.000
    O32      O        0.73742    0.21776    0.51760    1.000
    C49      C        0.01291    0.44158    0.61020    1.000
    H30      H        0.98230    0.42070    0.68210    1.000
    C50      C        0.12377    0.50611    0.75650    1.000
    C51      C        0.13620    0.51806    0.51570    1.000
    H31      H        0.18810    0.54850    0.52560    1.000
    C52      C        0.10543    0.50413    0.39390    1.000
    O33      O        0.11666    0.51803    0.17057    1.000
    C53      C        0.09113    0.48742    0.62380    1.000
    O34      O        0.08228    0.47192    0.85168    1.000
    O35      O        0.22165    0.58042    0.28750    1.000
    C54      C        0.86399    0.31414    0.52270    1.000
    H32      H        0.87290    0.32410    0.61520    1.000
    C55      C        0.88700    0.26100    0.50260    1.000
    H33      H        0.94060    0.28460    0.51400    1.000
    H34      H        0.87390    0.24130    0.41680    1.000
    H35      H        0.86210    0.22050    0.56330    1.000
    Mn6      Mn       0.45435    0.61951    0.99100    1.000
    O36      O        0.66540    0.42414    0.50266    1.000
    O37      O        0.61155    0.51577    0.46983    1.000
    C56      C        0.46211    0.61570    0.27570    1.000
    C57      C        0.57213    0.55401    0.48810    1.000
    C58      C        0.71239    0.49281    0.51160    1.000
    C59      C        0.54261    0.56942    0.38030    1.000
    H36      H        0.55360    0.55870    0.29880    1.000
    O38      O        0.44255    0.63410    0.77162    1.000
    O39      O        0.78224    0.51966    0.51760    1.000
    C60      C        0.55842    0.57133    0.61020    1.000
    H37      H        0.57930    0.56160    0.68210    1.000
    C61      C        0.49389    0.61766    0.75650    1.000
    C62      C        0.48194    0.61814    0.51570    1.000
    H38      H        0.45150    0.63960    0.52560    1.000
    C63      C        0.49587    0.60130    0.39390    1.000
    O40      O        0.48197    0.59863    0.17057    1.000
    C64      C        0.51258    0.60371    0.62380    1.000
    O41      O        0.52808    0.61036    0.85168    1.000
    O42      O        0.41958    0.64123    0.28750    1.000
    C65      C        0.68586    0.54985    0.52270    1.000
    H39      H        0.67590    0.54880    0.61520    1.000
    C66      C        0.73900    0.62600    0.50260    1.000
    H40      H        0.71540    0.65600    0.51400    1.000
    H41      H        0.75870    0.63260    0.41680    1.000
    H42      H        0.77950    0.64160    0.56330    1.000
    Na1      Na       0.33333    0.66667    0.17752    1.000
    Na2      Na       0.66667    0.33333    0.67752    1.000
    K1       K        0.66667    0.33333    0.26643    1.000
    K2       K        0.33333    0.66667    0.76643    1.000
