# CIF file generated by openbabel 3.1.0, see https://openbabel.org
data_I
_chemical_name_common 'NAMZIL_clean'
_cell_length_a 9.7882
_cell_length_b 12.6679
_cell_length_c 17.4524
_cell_angle_alpha 90
_cell_angle_beta 90
_cell_angle_gamma 105.57
_space_group_name_H-M_alt 'P 1'
_space_group_name_Hall 'P 1'
loop_
    _symmetry_equiv_pos_as_xyz
    x,y,z
loop_
    _atom_site_label
    _atom_site_type_symbol
    _atom_site_fract_x
    _atom_site_fract_y
    _atom_site_fract_z
    _atom_site_occupancy
    Mn1      Mn       0.13290    0.88753    0.89169    1.000
    Mn2      Mn       0.36710    0.61247    0.39169    1.000
    Mn3      Mn       0.86710    0.11247    0.10831    1.000
    Mn4      Mn       0.63290    0.38753    0.60831    1.000
    Re1      Re       0.38089    0.58261    0.96033    1.000
    Re2      Re       0.66015    0.62068    0.98419    1.000
    Re3      Re       0.52226    0.44863    0.90000    1.000
    Re4      Re       0.11911    0.91739    0.46033    1.000
    Re5      Re       0.83985    0.87932    0.48419    1.000
    Re6      Re       0.97774    0.05137    0.40000    1.000
    Re7      Re       0.61911    0.41739    0.03967    1.000
    Re8      Re       0.33985    0.37932    0.01581    1.000
    Re9      Re       0.47774    0.55137    0.10000    1.000
    Re10     Re       0.88089    0.08261    0.53967    1.000
    Re11     Re       0.16015    0.12068    0.51581    1.000
    Re12     Re       0.02226    0.94863    0.60000    1.000
    Te1      Te       0.56410    0.65354    0.84454    1.000
    Te2      Te       0.51952    0.75637    0.04470    1.000
    Te3      Te       0.19571    0.51373    0.07531    1.000
    Te4      Te       0.24004    0.40897    0.87593    1.000
    Te5      Te       0.93590    0.84646    0.34454    1.000
    Te6      Te       0.98048    0.74363    0.54470    1.000
    Te7      Te       0.30429    0.98627    0.57531    1.000
    Te8      Te       0.25996    0.09103    0.37593    1.000
    Te9      Te       0.43590    0.34646    0.15546    1.000
    Te10     Te       0.48048    0.24363    0.95530    1.000
    Te11     Te       0.80429    0.48627    0.92469    1.000
    Te12     Te       0.75996    0.59103    0.12407    1.000
    Te13     Te       0.06410    0.15354    0.65546    1.000
    Te14     Te       0.01952    0.25637    0.45530    1.000
    Te15     Te       0.69571    0.01373    0.42469    1.000
    Te16     Te       0.74004    0.90897    0.62407    1.000
    C1       C        0.83430    0.75070    0.96230    1.000
    C2       C        0.25120    0.67590    0.91670    1.000
    C3       C        0.54630    0.39840    0.78930    1.000
    C4       C        0.66570    0.74930    0.46230    1.000
    C5       C        0.24880    0.82410    0.41670    1.000
    C6       C        0.95370    0.10160    0.28930    1.000
    C7       C        0.16570    0.24930    0.03770    1.000
    C8       C        0.74880    0.32410    0.08330    1.000
    C9       C        0.45370    0.60160    0.21070    1.000
    C10      C        0.33430    0.25070    0.53770    1.000
    C11      C        0.75120    0.17590    0.58330    1.000
    C12      C        0.04630    0.89840    0.71070    1.000
    N1       N        0.93120    0.82520    0.94950    1.000
    N2       N        0.18830    0.73230    0.89620    1.000
    N3       N        0.56410    0.37520    0.72590    1.000
    N4       N        0.56880    0.67480    0.44950    1.000
    N5       N        0.31170    0.76770    0.39620    1.000
    N6       N        0.93590    0.12480    0.22590    1.000
    N7       N        0.06880    0.17480    0.05050    1.000
    N8       N        0.81170    0.26770    0.10380    1.000
    N9       N        0.43590    0.62480    0.27410    1.000
    N10      N        0.43120    0.32520    0.55050    1.000
    N11      N        0.68830    0.23230    0.60380    1.000
    N12      N        0.06410    0.87520    0.77410    1.000
