# CIF file generated by openbabel 3.1.0, see https://openbabel.org
data_I
_chemical_name_common 'image0'
_cell_length_a 9.1742
_cell_length_b 11.1153
_cell_length_c 11.1714
_cell_angle_alpha 77.009
_cell_angle_beta 68.082
_cell_angle_gamma 78.222
_space_group_name_H-M_alt 'P 1'
_space_group_name_Hall 'P 1'
loop_
    _symmetry_equiv_pos_as_xyz
    x,y,z
loop_
    _atom_site_label
    _atom_site_type_symbol
    _atom_site_fract_x
    _atom_site_fract_y
    _atom_site_fract_z
    _atom_site_occupancy
    Gd1      Gd       0.72540    0.51598    0.02028    1.000
    C1       C        0.00600    0.67280    0.83330    1.000
    S1       S        0.84780    0.05570    0.87611    1.000
    C2       C        0.10350    0.75750    0.71880    1.000
    H1       H        0.21460    0.73070    0.70760    1.000
    H2       H        0.07750    0.84120    0.73950    1.000
    C3       C        0.11440    0.59950    0.55320    1.000
    H3       H        0.05270    0.55430    0.63560    1.000
    H4       H        0.07670    0.58870    0.48650    1.000
    S2       S        0.30642    0.37908    0.50674    1.000
    O1       O        0.91230    0.40510    0.83770    1.000
    S3       S        0.07667    0.76291    0.56563    1.000
    O2       O        0.72940    0.29850    0.98420    1.000
    C4       C        0.28670    0.54130    0.52060    1.000
    H5       H        0.32510    0.54770    0.58860    1.000
    H6       H        0.35060    0.58600    0.43870    1.000
    O3       O        0.56770    0.43190    0.24450    1.000
    C5       C        0.29320    0.39740    0.34740    1.000
    H7       H        0.26540    0.32070    0.33930    1.000
    H8       H        0.20680    0.46260    0.34180    1.000
    O4       O        0.86350    0.67250    0.85160    1.000
    C6       C        0.43890    0.42830    0.23270    1.000
    C7       C        0.91280    0.01530    0.01820    1.000
    H9       H        0.87730    0.08470    0.06610    1.000
    H10      H        0.86340    0.94430    0.07580    1.000
    O5       O        0.07510    0.60520    0.90740    1.000
    C8       C        0.91510    0.20130    0.80310    1.000
    H11      H        0.02930    0.18960    0.78120    1.000
    H12      H        0.89400    0.22720    0.72160    1.000
    C9       C        0.84580    0.30740    0.88190    1.000
    O6       O        0.42500    0.45320    0.12140    1.000
    Gd2      Gd       0.27460    0.48402    0.97972    1.000
    C10      C        0.99400    0.32720    0.16670    1.000
    S4       S        0.15220    0.94430    0.12389    1.000
    C11      C        0.89650    0.24250    0.28120    1.000
    H13      H        0.78540    0.26930    0.29240    1.000
    H14      H        0.92250    0.15880    0.26050    1.000
    C12      C        0.88560    0.40050    0.44680    1.000
    H15      H        0.94730    0.44570    0.36440    1.000
    H16      H        0.92330    0.41130    0.51350    1.000
    S5       S        0.69358    0.62092    0.49326    1.000
    O7       O        0.08770    0.59490    0.16230    1.000
    S6       S        0.92333    0.23709    0.43437    1.000
    O8       O        0.27060    0.70150    0.01580    1.000
    C13      C        0.71330    0.45870    0.47940    1.000
    H17      H        0.67490    0.45230    0.41140    1.000
    H18      H        0.64940    0.41400    0.56130    1.000
    O9       O        0.43230    0.56810    0.75550    1.000
    C14      C        0.70680    0.60260    0.65260    1.000
    H19      H        0.73460    0.67930    0.66070    1.000
    H20      H        0.79320    0.53740    0.65820    1.000
    O10      O        0.13650    0.32750    0.14840    1.000
    C15      C        0.56110    0.57170    0.76730    1.000
    C16      C        0.08720    0.98470    0.98180    1.000
    H21      H        0.12270    0.91530    0.93390    1.000
    H22      H        0.13660    0.05570    0.92420    1.000
    O11      O        0.92490    0.39480    0.09260    1.000
    C17      C        0.08490    0.79870    0.19690    1.000
    H23      H        0.97070    0.81040    0.21880    1.000
    H24      H        0.10600    0.77280    0.27840    1.000
    C18      C        0.15420    0.69260    0.11810    1.000
    O12      O        0.57500    0.54680    0.87860    1.000
