# CIF file generated by openbabel 3.1.0, see https://openbabel.org
data_I
_chemical_name_common 'image0'
_cell_length_a 18.094
_cell_length_b 18.445
_cell_length_c 20.183
_cell_angle_alpha 90
_cell_angle_beta 90
_cell_angle_gamma 90
_space_group_name_H-M_alt 'P 1'
_space_group_name_Hall 'P 1'
loop_
    _symmetry_equiv_pos_as_xyz
    x,y,z
loop_
    _atom_site_label
    _atom_site_type_symbol
    _atom_site_fract_x
    _atom_site_fract_y
    _atom_site_fract_z
    _atom_site_occupancy
    Ag1      Ag       0.83987    0.37616    0.84512    1.000
    Si1      Si       0.95793    0.51640    0.14705    1.000
    Si2      Si       0.12919    0.49597    0.63461    1.000
    N1       N        0.86990    0.42040    0.94630    1.000
    N2       N        0.76120    0.58740    0.28610    1.000
    N3       N        0.93860    0.40660    0.76850    1.000
    N4       N        0.14270    0.75070    0.64180    1.000
    C1       C        0.93630    0.41420    0.96440    1.000
    H1       H        0.96950    0.38890    0.93630    1.000
    C2       C        0.96370    0.44300    0.02450    1.000
    H2       H        0.01450    0.43790    0.03550    1.000
    C3       C        0.91710    0.47800    0.06650    1.000
    C4       C        0.84880    0.48020    0.04650    1.000
    H3       H        0.81390    0.50380    0.07430    1.000
    C5       C        0.82410    0.45180    0.98970    1.000
    H4       H        0.77280    0.45390    0.98000    1.000
    C6       C        0.87470    0.54110    0.20210    1.000
    C7       C        0.83330    0.60290    0.18780    1.000
    H5       H        0.84220    0.63030    0.14870    1.000
    C8       C        0.77910    0.62310    0.23200    1.000
    H6       H        0.75250    0.66620    0.22270    1.000
    C9       C        0.80060    0.52870    0.30020    1.000
    H7       H        0.79090    0.50340    0.34030    1.000
    C10      C        0.85460    0.50380    0.25890    1.000
    H8       H        0.87910    0.45980    0.26940    1.000
    C11      C        0.01800    0.44820    0.18500    1.000
    H9       H        0.99540    0.43100    0.22680    1.000
    H10      H        0.02260    0.40620    0.15480    1.000
    C12      C        0.08980    0.47690    0.19860    1.000
    H11      H        0.12050    0.43920    0.21890    1.000
    H12      H        0.08550    0.51800    0.22900    1.000
    H13      H        0.11270    0.49300    0.15720    1.000
    C13      C        0.01730    0.59370    0.12570    1.000
    H14      H        0.99050    0.62650    0.09600    1.000
    H15      H        0.06210    0.57610    0.10360    1.000
    H16      H        0.03100    0.61980    0.16620    1.000
    C14      C        0.00700    0.40120    0.78780    1.000
    H17      H        0.01760    0.37840    0.82900    1.000
    C15      C        0.06640    0.42830    0.74890    1.000
    H18      H        0.11580    0.42350    0.76440    1.000
    C16      C        0.05330    0.46100    0.68950    1.000
    C17      C        0.97960    0.46420    0.67190    1.000
    H19      H        0.96630    0.48720    0.63160    1.000
    C18      C        0.92610    0.43590    0.70970    1.000
    H20      H        0.87680    0.43680    0.69360    1.000
    C19      C        0.12850    0.59810    0.63740    1.000
    C20      C        0.10100    0.63760    0.68740    1.000
    H21      H        0.07680    0.61340    0.72290    1.000
    C21      C        0.10670    0.71270    0.68910    1.000
    H22      H        0.08450    0.73820    0.72480    1.000
    C22      C        0.17210    0.71310    0.59230    1.000
    H23      H        0.19700    0.73850    0.55800    1.000
    C23      C        0.16790    0.63850    0.58890    1.000
    H24      H        0.19170    0.61370    0.55360    1.000
    C24      C        0.21860    0.46210    0.66580    1.000
    H25      H        0.25320    0.50260    0.67430    1.000
    H26      H        0.21200    0.43400    0.70720    1.000
    C25      C        0.12540    0.46340    0.54840    1.000
    H27      H        0.08430    0.42880    0.54110    1.000
    H28      H        0.12210    0.50370    0.51620    1.000
    C26      C        0.19620    0.42840    0.54700    1.000
    H29      H        0.22730    0.45610    0.51560    1.000
    H30      H        0.18860    0.37990    0.52720    1.000
    C27      C        0.24480    0.41680    0.61320    1.000
    H31      H        0.24190    0.36540    0.62710    1.000
    H32      H        0.29710    0.42830    0.60380    1.000
    Ag2      Ag       0.66013    0.62384    0.34512    1.000
    Si3      Si       0.54207    0.48360    0.64705    1.000
    Si4      Si       0.37081    0.50403    0.13461    1.000
    N5       N        0.63010    0.57960    0.44630    1.000
    N6       N        0.73880    0.41260    0.78610    1.000
    N7       N        0.56140    0.59340    0.26850    1.000
    N8       N        0.35730    0.24930    0.14180    1.000
    C28      C        0.56370    0.58580    0.46440    1.000
    H33      H        0.53050    0.61110    0.43630    1.000
    C29      C        0.53630    0.55700    0.52450    1.000
    H34      H        0.48550    0.56210    0.53550    1.000
    C30      C        0.58290    0.52200    0.56650    1.000
    C31      C        0.65120    0.51980    0.54650    1.000
    H35      H        0.68610    0.49620    0.57430    1.000
    C32      C        0.67590    0.54820    0.48970    1.000
    H36      H        0.72720    0.54610    0.48000    1.000
    C33      C        0.62530    0.45890    0.70210    1.000
    C34      C        0.66670    0.39710    0.68780    1.000
    H37      H        0.65780    0.36970    0.64870    1.000
    C35      C        0.72090    0.37690    0.73200    1.000
    H38      H        0.74750    0.33380    0.72270    1.000
    C36      C        0.69940    0.47130    0.80020    1.000
    H39      H        0.70910    0.49660    0.84030    1.000
    C37      C        0.64540    0.49620    0.75890    1.000
    H40      H        0.62090    0.54020    0.76940    1.000
    C38      C        0.48200    0.55180    0.68500    1.000
    H41      H        0.50460    0.56900    0.72680    1.000
    H42      H        0.47740    0.59380    0.65480    1.000
    C39      C        0.41020    0.52310    0.69860    1.000
    H43      H        0.37950    0.56080    0.71890    1.000
    H44      H        0.41450    0.48200    0.72900    1.000
    H45      H        0.38730    0.50700    0.65720    1.000
    C40      C        0.48270    0.40630    0.62570    1.000
    H46      H        0.50950    0.37350    0.59600    1.000
    H47      H        0.43790    0.42390    0.60360    1.000
    H48      H        0.46900    0.38020    0.66620    1.000
    C41      C        0.49300    0.59880    0.28780    1.000
    H49      H        0.48240    0.62160    0.32900    1.000
    C42      C        0.43360    0.57170    0.24890    1.000
    H50      H        0.38420    0.57650    0.26440    1.000
    C43      C        0.44670    0.53900    0.18950    1.000
    C44      C        0.52040    0.53580    0.17190    1.000
    H51      H        0.53370    0.51280    0.13160    1.000
    C45      C        0.57390    0.56410    0.20970    1.000
    H52      H        0.62320    0.56320    0.19360    1.000
    C46      C        0.37150    0.40190    0.13740    1.000
    C47      C        0.39900    0.36240    0.18740    1.000
    H53      H        0.42320    0.38660    0.22290    1.000
    C48      C        0.39330    0.28730    0.18910    1.000
    H54      H        0.41550    0.26180    0.22480    1.000
    C49      C        0.32790    0.28690    0.09230    1.000
    H55      H        0.30300    0.26150    0.05800    1.000
    C50      C        0.33210    0.36150    0.08890    1.000
    H56      H        0.30830    0.38630    0.05360    1.000
    C51      C        0.28140    0.53790    0.16580    1.000
    H57      H        0.24680    0.49740    0.17430    1.000
    H58      H        0.28800    0.56600    0.20720    1.000
    C52      C        0.37460    0.53660    0.04840    1.000
    H59      H        0.41570    0.57120    0.04110    1.000
    H60      H        0.37790    0.49630    0.01620    1.000
    C53      C        0.30380    0.57160    0.04700    1.000
    H61      H        0.27270    0.54390    0.01560    1.000
    H62      H        0.31140    0.62010    0.02720    1.000
    C54      C        0.25520    0.58320    0.11320    1.000
    H63      H        0.25810    0.63460    0.12710    1.000
    H64      H        0.20290    0.57170    0.10380    1.000
    Ag3      Ag       0.16013    0.87616    0.65488    1.000
    Si5      Si       0.04207    0.01640    0.35295    1.000
    Si6      Si       0.87081    0.99597    0.86539    1.000
    N9       N        0.13010    0.92040    0.55370    1.000
    N10      N        0.23880    0.08740    0.21390    1.000
    N11      N        0.06140    0.90660    0.73150    1.000
    N12      N        0.85730    0.25070    0.85820    1.000
    C55      C        0.06370    0.91420    0.53560    1.000
    H65      H        0.03050    0.88890    0.56370    1.000
    C56      C        0.03630    0.94300    0.47550    1.000
    H66      H        0.98550    0.93790    0.46450    1.000
    C57      C        0.08290    0.97800    0.43350    1.000
    C58      C        0.15120    0.98020    0.45350    1.000
    H67      H        0.18610    0.00380    0.42570    1.000
    C59      C        0.17590    0.95180    0.51030    1.000
    H68      H        0.22720    0.95390    0.52000    1.000
    C60      C        0.12530    0.04110    0.29790    1.000
    C61      C        0.16670    0.10290    0.31220    1.000
    H69      H        0.15780    0.13030    0.35130    1.000
    C62      C        0.22090    0.12310    0.26800    1.000
    H70      H        0.24750    0.16620    0.27730    1.000
    C63      C        0.19940    0.02870    0.19980    1.000
    H71      H        0.20910    0.00340    0.15970    1.000
    C64      C        0.14540    0.00380    0.24110    1.000
    H72      H        0.12090    0.95980    0.23060    1.000
    C65      C        0.98200    0.94820    0.31500    1.000
    H73      H        0.00460    0.93100    0.27320    1.000
    H74      H        0.97740    0.90620    0.34520    1.000
    C66      C        0.91020    0.97690    0.30140    1.000
    H75      H        0.87950    0.93920    0.28110    1.000
    H76      H        0.91450    0.01800    0.27100    1.000
    H77      H        0.88730    0.99300    0.34280    1.000
    C67      C        0.98270    0.09370    0.37430    1.000
    H78      H        0.00950    0.12650    0.40400    1.000
    H79      H        0.93790    0.07610    0.39640    1.000
    H80      H        0.96900    0.11980    0.33380    1.000
    C68      C        0.99300    0.90120    0.71220    1.000
    H81      H        0.98240    0.87840    0.67100    1.000
    C69      C        0.93360    0.92830    0.75110    1.000
    H82      H        0.88420    0.92350    0.73560    1.000
    C70      C        0.94670    0.96100    0.81050    1.000
    C71      C        0.02040    0.96420    0.82810    1.000
    H83      H        0.03370    0.98720    0.86840    1.000
    C72      C        0.07390    0.93590    0.79030    1.000
    H84      H        0.12320    0.93680    0.80640    1.000
    C73      C        0.87150    0.09810    0.86260    1.000
    C74      C        0.89900    0.13760    0.81260    1.000
    H85      H        0.92320    0.11340    0.77710    1.000
    C75      C        0.89330    0.21270    0.81090    1.000
    H86      H        0.91550    0.23820    0.77520    1.000
    C76      C        0.82790    0.21310    0.90770    1.000
    H87      H        0.80300    0.23850    0.94200    1.000
    C77      C        0.83210    0.13850    0.91110    1.000
    H88      H        0.80830    0.11370    0.94640    1.000
    C78      C        0.78140    0.96210    0.83420    1.000
    H89      H        0.74680    0.00260    0.82570    1.000
    H90      H        0.78800    0.93400    0.79280    1.000
    C79      C        0.87460    0.96340    0.95160    1.000
    H91      H        0.91570    0.92880    0.95890    1.000
    H92      H        0.87790    0.00370    0.98380    1.000
    C80      C        0.80380    0.92840    0.95300    1.000
    H93      H        0.77270    0.95610    0.98440    1.000
    H94      H        0.81140    0.87990    0.97280    1.000
    C81      C        0.75520    0.91680    0.88680    1.000
    H95      H        0.75810    0.86540    0.87290    1.000
    H96      H        0.70290    0.92830    0.89620    1.000
    Ag4      Ag       0.33987    0.12384    0.15488    1.000
    Si7      Si       0.45793    0.98360    0.85295    1.000
    Si8      Si       0.62919    0.00403    0.36539    1.000
    N13      N        0.36990    0.07960    0.05370    1.000
    N14      N        0.26120    0.91260    0.71390    1.000
    N15      N        0.43860    0.09340    0.23150    1.000
    N16      N        0.64270    0.74930    0.35820    1.000
    C82      C        0.43630    0.08580    0.03560    1.000
    H97      H        0.46950    0.11110    0.06370    1.000
    C83      C        0.46370    0.05700    0.97550    1.000
    H98      H        0.51450    0.06210    0.96450    1.000
    C84      C        0.41710    0.02200    0.93350    1.000
    C85      C        0.34880    0.01980    0.95350    1.000
    H99      H        0.31390    0.99620    0.92570    1.000
    C86      C        0.32410    0.04820    0.01030    1.000
    H100     H        0.27280    0.04610    0.02000    1.000
    C87      C        0.37470    0.95890    0.79790    1.000
    C88      C        0.33330    0.89710    0.81220    1.000
    H101     H        0.34220    0.86970    0.85130    1.000
    C89      C        0.27910    0.87690    0.76800    1.000
    H102     H        0.25250    0.83380    0.77730    1.000
    C90      C        0.30060    0.97130    0.69980    1.000
    H103     H        0.29090    0.99660    0.65970    1.000
    C91      C        0.35460    0.99620    0.74110    1.000
    H104     H        0.37910    0.04020    0.73060    1.000
    C92      C        0.51800    0.05180    0.81500    1.000
    H105     H        0.49540    0.06900    0.77320    1.000
    H106     H        0.52260    0.09380    0.84520    1.000
    C93      C        0.58980    0.02310    0.80140    1.000
    H107     H        0.62050    0.06080    0.78110    1.000
    H108     H        0.58550    0.98200    0.77100    1.000
    H109     H        0.61270    0.00700    0.84280    1.000
    C94      C        0.51730    0.90630    0.87430    1.000
    H110     H        0.49050    0.87350    0.90400    1.000
    H111     H        0.56210    0.92390    0.89640    1.000
    H112     H        0.53100    0.88020    0.83380    1.000
    C95      C        0.50700    0.09880    0.21220    1.000
    H113     H        0.51760    0.12160    0.17100    1.000
    C96      C        0.56640    0.07170    0.25110    1.000
    H114     H        0.61580    0.07650    0.23560    1.000
    C97      C        0.55330    0.03900    0.31050    1.000
    C98      C        0.47960    0.03580    0.32810    1.000
    H115     H        0.46630    0.01280    0.36840    1.000
    C99      C        0.42610    0.06410    0.29030    1.000
    H116     H        0.37680    0.06320    0.30640    1.000
    C100     C        0.62850    0.90190    0.36260    1.000
    C101     C        0.60100    0.86240    0.31260    1.000
    H117     H        0.57680    0.88660    0.27710    1.000
    C102     C        0.60670    0.78730    0.31090    1.000
    H118     H        0.58450    0.76180    0.27520    1.000
    C103     C        0.67210    0.78690    0.40770    1.000
    H119     H        0.69700    0.76150    0.44200    1.000
    C104     C        0.66790    0.86150    0.41110    1.000
    H120     H        0.69170    0.88630    0.44640    1.000
    C105     C        0.71860    0.03790    0.33420    1.000
    H121     H        0.75320    0.99740    0.32570    1.000
    H122     H        0.71200    0.06600    0.29280    1.000
    C106     C        0.62540    0.03660    0.45160    1.000
    H123     H        0.58430    0.07120    0.45890    1.000
    H124     H        0.62210    0.99630    0.48380    1.000
    C107     C        0.69620    0.07160    0.45300    1.000
    H125     H        0.72730    0.04390    0.48440    1.000
    H126     H        0.68860    0.12010    0.47280    1.000
    C108     C        0.74480    0.08320    0.38680    1.000
    H127     H        0.74190    0.13460    0.37290    1.000
    H128     H        0.79710    0.07170    0.39620    1.000
    Ag5      Ag       0.83315    0.86723    0.14911    1.000
    Si9      Si       0.44860    0.82810    0.13283    1.000
    Si10     Si       0.96210    0.67640    0.42688    1.000
    N17      N        0.70720    0.85880    0.13720    1.000
    N18      N        0.38230    0.70970    0.93540    1.000
    N19      N        0.86880    0.79870    0.23880    1.000
    N20      N        0.10200    0.47150    0.36030    1.000
    C109     C        0.67530    0.79440    0.14060    1.000
    H129     H        0.70620    0.75300    0.14470    1.000
    C110     C        0.59810    0.78340    0.13860    1.000
    H130     H        0.57870    0.73560    0.14000    1.000
    C111     C        0.55060    0.84180    0.13470    1.000
    C112     C        0.58480    0.90820    0.12860    1.000
    H131     H        0.55540    0.95040    0.12280    1.000
    C113     C        0.66120    0.91500    0.13090    1.000
    H132     H        0.68190    0.96230    0.12780    1.000
    C114     C        0.42720    0.78260    0.05190    1.000
    C115     C        0.35430    0.77630    0.03560    1.000
    H133     H        0.31750    0.79590    0.06400    1.000
    C116     C        0.33320    0.74000    0.97540    1.000
    H134     H        0.28230    0.73760    0.96400    1.000
    C117     C        0.45200    0.71560    0.95470    1.000
    H135     H        0.48920    0.69460    0.92750    1.000
    C118     C        0.47330    0.74940    0.01040    1.000
    H136     H        0.52450    0.74970    0.02090    1.000
    C119     C        0.39710    0.90920    0.15750    1.000
    H137     H        0.43030    0.94990    0.16940    1.000
    H138     H        0.36190    0.92510    0.12290    1.000
    C120     C        0.42030    0.77000    0.20200    1.000
    H139     H        0.39040    0.72900    0.18540    1.000
    H140     H        0.46440    0.75020    0.22460    1.000
    C121     C        0.37770    0.81240    0.24760    1.000
    H141     H        0.40650    0.82200    0.28840    1.000
    H142     H        0.33180    0.78640    0.25990    1.000
    C122     C        0.36010    0.87930    0.21460    1.000
    H143     H        0.36280    0.91730    0.24920    1.000
    H144     H        0.30740    0.87550    0.20200    1.000
    C123     C        0.93110    0.76260    0.23780    1.000
    H145     H        0.95980    0.76360    0.19840    1.000
    C124     C        0.95730    0.72310    0.29110    1.000
    H146     H        0.00180    0.69630    0.28640    1.000
    C125     C        0.92060    0.72160    0.35060    1.000
    C126     C        0.86010    0.76350    0.35100    1.000
    H147     H        0.83400    0.76930    0.39150    1.000
    C127     C        0.83530    0.79680    0.29810    1.000
    H148     H        0.78960    0.82180    0.30210    1.000
    C128     C        0.02010    0.59630    0.39830    1.000
    C129     C        0.98830    0.52850    0.39290    1.000
    H149     H        0.93710    0.52210    0.40150    1.000
    C130     C        0.03260    0.46900    0.37460    1.000
    H150     H        0.00930    0.42290    0.37250    1.000
    C131     C        0.13380    0.53910    0.36600    1.000
    H151     H        0.18530    0.54380    0.35790    1.000
    C132     C        0.09440    0.59980    0.38280    1.000
    H152     H        0.11870    0.64540    0.38390    1.000
    C133     C        0.02450    0.73900    0.46980    1.000
    H153     H        0.06370    0.75450    0.43940    1.000
    H154     H        0.04660    0.71450    0.50810    1.000
    H155     H        0.99670    0.78150    0.48490    1.000
    C134     C        0.89360    0.64800    0.48830    1.000
    H156     H        0.85490    0.68580    0.49080    1.000
    H157     H        0.86960    0.60310    0.47200    1.000
    C135     C        0.92040    0.63470    0.55400    1.000
    H158     H        0.87910    0.62070    0.58270    1.000
    H159     H        0.94360    0.67880    0.57140    1.000
    H160     H        0.95690    0.59540    0.55290    1.000
    Ag6      Ag       0.66685    0.13277    0.64911    1.000
    Si11     Si       0.05140    0.17190    0.63283    1.000
    Si12     Si       0.53790    0.32360    0.92688    1.000
    N21      N        0.79280    0.14120    0.63720    1.000
    N22      N        0.11770    0.29030    0.43540    1.000
    N23      N        0.63120    0.20130    0.73880    1.000
    N24      N        0.39800    0.52850    0.86030    1.000
    C136     C        0.82470    0.20560    0.64060    1.000
    H161     H        0.79380    0.24700    0.64470    1.000
    C137     C        0.90190    0.21660    0.63860    1.000
    H162     H        0.92130    0.26440    0.64000    1.000
    C138     C        0.94940    0.15820    0.63470    1.000
    C139     C        0.91520    0.09180    0.62860    1.000
    H163     H        0.94460    0.04960    0.62280    1.000
    C140     C        0.83880    0.08500    0.63090    1.000
    H164     H        0.81810    0.03770    0.62780    1.000
    C141     C        0.07280    0.21740    0.55190    1.000
    C142     C        0.14570    0.22370    0.53560    1.000
    H165     H        0.18250    0.20410    0.56400    1.000
    C143     C        0.16680    0.26000    0.47540    1.000
    H166     H        0.21770    0.26240    0.46400    1.000
    C144     C        0.04800    0.28440    0.45470    1.000
    H167     H        0.01080    0.30540    0.42750    1.000
    C145     C        0.02670    0.25060    0.51040    1.000
    H168     H        0.97550    0.25030    0.52090    1.000
    C146     C        0.10290    0.09080    0.65750    1.000
    H169     H        0.06970    0.05010    0.66940    1.000
    H170     H        0.13810    0.07490    0.62290    1.000
    C147     C        0.07970    0.23000    0.70200    1.000
    H171     H        0.10960    0.27100    0.68540    1.000
    H172     H        0.03560    0.24980    0.72460    1.000
    C148     C        0.12230    0.18760    0.74760    1.000
    H173     H        0.09350    0.17800    0.78840    1.000
    H174     H        0.16820    0.21360    0.75990    1.000
    C149     C        0.13990    0.12070    0.71460    1.000
    H175     H        0.13720    0.08270    0.74920    1.000
    H176     H        0.19260    0.12450    0.70200    1.000
    C150     C        0.56890    0.23740    0.73780    1.000
    H177     H        0.54020    0.23640    0.69840    1.000
    C151     C        0.54270    0.27690    0.79110    1.000
    H178     H        0.49820    0.30370    0.78640    1.000
    C152     C        0.57940    0.27840    0.85060    1.000
    C153     C        0.63990    0.23650    0.85100    1.000
    H179     H        0.66600    0.23070    0.89150    1.000
    C154     C        0.66470    0.20320    0.79810    1.000
    H180     H        0.71040    0.17820    0.80210    1.000
    C155     C        0.47990    0.40370    0.89830    1.000
    C156     C        0.51170    0.47150    0.89290    1.000
    H181     H        0.56290    0.47790    0.90150    1.000
    C157     C        0.46740    0.53100    0.87460    1.000
    H182     H        0.49070    0.57710    0.87250    1.000
    C158     C        0.36620    0.46090    0.86600    1.000
    H183     H        0.31470    0.45620    0.85790    1.000
    C159     C        0.40560    0.40020    0.88280    1.000
    H184     H        0.38130    0.35460    0.88390    1.000
    C160     C        0.47550    0.26100    0.96980    1.000
    H185     H        0.43630    0.24550    0.93940    1.000
    H186     H        0.45340    0.28550    0.00810    1.000
    H187     H        0.50330    0.21850    0.98490    1.000
    C161     C        0.60640    0.35200    0.98830    1.000
    H188     H        0.64510    0.31420    0.99080    1.000
    H189     H        0.63040    0.39690    0.97200    1.000
    C162     C        0.57960    0.36530    0.05400    1.000
    H190     H        0.62090    0.37930    0.08270    1.000
    H191     H        0.55640    0.32120    0.07140    1.000
    H192     H        0.54310    0.40460    0.05290    1.000
    Ag7      Ag       0.16685    0.36723    0.35089    1.000
    Si13     Si       0.55140    0.32810    0.36717    1.000
    Si14     Si       0.03790    0.17640    0.07312    1.000
    N25      N        0.29280    0.35880    0.36280    1.000
    N26      N        0.61770    0.20970    0.56460    1.000
    N27      N        0.13120    0.29870    0.26120    1.000
    N28      N        0.89800    0.97150    0.13970    1.000
    C163     C        0.32470    0.29440    0.35940    1.000
    H193     H        0.29380    0.25300    0.35530    1.000
    C164     C        0.40190    0.28340    0.36140    1.000
    H194     H        0.42130    0.23560    0.36000    1.000
    C165     C        0.44940    0.34180    0.36530    1.000
    C166     C        0.41520    0.40820    0.37140    1.000
    H195     H        0.44460    0.45040    0.37720    1.000
    C167     C        0.33880    0.41500    0.36910    1.000
    H196     H        0.31810    0.46230    0.37220    1.000
    C168     C        0.57280    0.28260    0.44810    1.000
    C169     C        0.64570    0.27630    0.46440    1.000
    H197     H        0.68250    0.29590    0.43600    1.000
    C170     C        0.66680    0.24000    0.52460    1.000
    H198     H        0.71770    0.23760    0.53600    1.000
    C171     C        0.54800    0.21560    0.54530    1.000
    H199     H        0.51080    0.19460    0.57250    1.000
    C172     C        0.52670    0.24940    0.48960    1.000
    H200     H        0.47550    0.24970    0.47910    1.000
    C173     C        0.60290    0.40920    0.34250    1.000
    H201     H        0.56970    0.44990    0.33060    1.000
    H202     H        0.63810    0.42510    0.37710    1.000
    C174     C        0.57970    0.27000    0.29800    1.000
    H203     H        0.60960    0.22900    0.31460    1.000
    H204     H        0.53560    0.25020    0.27540    1.000
    C175     C        0.62230    0.31240    0.25240    1.000
    H205     H        0.59350    0.32200    0.21160    1.000
    H206     H        0.66820    0.28640    0.24010    1.000
    C176     C        0.63990    0.37930    0.28540    1.000
    H207     H        0.63720    0.41730    0.25080    1.000
    H208     H        0.69260    0.37550    0.29800    1.000
    C177     C        0.06890    0.26260    0.26220    1.000
    H209     H        0.04020    0.26360    0.30160    1.000
    C178     C        0.04270    0.22310    0.20890    1.000
    H210     H        0.99820    0.19630    0.21360    1.000
    C179     C        0.07940    0.22160    0.14940    1.000
    C180     C        0.13990    0.26350    0.14900    1.000
    H211     H        0.16600    0.26930    0.10850    1.000
    C181     C        0.16470    0.29680    0.20190    1.000
    H212     H        0.21040    0.32180    0.19790    1.000
    C182     C        0.97990    0.09630    0.10170    1.000
    C183     C        0.01170    0.02850    0.10710    1.000
    H213     H        0.06290    0.02210    0.09850    1.000
    C184     C        0.96740    0.96900    0.12540    1.000
    H214     H        0.99070    0.92290    0.12750    1.000
    C185     C        0.86620    0.03910    0.13400    1.000
    H215     H        0.81470    0.04380    0.14210    1.000
    C186     C        0.90560    0.09980    0.11720    1.000
    H216     H        0.88130    0.14540    0.11610    1.000
    C187     C        0.97550    0.23900    0.03020    1.000
    H217     H        0.93630    0.25450    0.06060    1.000
    H218     H        0.95340    0.21450    0.99190    1.000
    H219     H        0.00330    0.28150    0.01510    1.000
    C188     C        0.10640    0.14800    0.01170    1.000
    H220     H        0.14510    0.18580    0.00920    1.000
    H221     H        0.13040    0.10310    0.02800    1.000
    C189     C        0.07960    0.13470    0.94600    1.000
    H222     H        0.12090    0.12070    0.91730    1.000
    H223     H        0.05640    0.17880    0.92860    1.000
    H224     H        0.04310    0.09540    0.94710    1.000
    Ag8      Ag       0.33315    0.63277    0.85089    1.000
    Si15     Si       0.94860    0.67190    0.86717    1.000
    Si16     Si       0.46210    0.82360    0.57312    1.000
    N29      N        0.20720    0.64120    0.86280    1.000
    N30      N        0.88230    0.79030    0.06460    1.000
    N31      N        0.36880    0.70130    0.76120    1.000
    N32      N        0.60200    0.02850    0.63970    1.000
    C190     C        0.17530    0.70560    0.85940    1.000
    H225     H        0.20620    0.74700    0.85530    1.000
    C191     C        0.09810    0.71660    0.86140    1.000
    H226     H        0.07870    0.76440    0.86000    1.000
    C192     C        0.05060    0.65820    0.86530    1.000
    C193     C        0.08480    0.59180    0.87140    1.000
    H227     H        0.05540    0.54960    0.87720    1.000
    C194     C        0.16120    0.58500    0.86910    1.000
    H228     H        0.18190    0.53770    0.87220    1.000
    C195     C        0.92720    0.71740    0.94810    1.000
    C196     C        0.85430    0.72370    0.96440    1.000
    H229     H        0.81750    0.70410    0.93600    1.000
    C197     C        0.83320    0.76000    0.02460    1.000
    H230     H        0.78230    0.76240    0.03600    1.000
    C198     C        0.95200    0.78440    0.04530    1.000
    H231     H        0.98920    0.80540    0.07250    1.000
    C199     C        0.97330    0.75060    0.98960    1.000
    H232     H        0.02450    0.75030    0.97910    1.000
    C200     C        0.89710    0.59080    0.84250    1.000
    H233     H        0.93030    0.55010    0.83060    1.000
    H234     H        0.86190    0.57490    0.87710    1.000
    C201     C        0.92030    0.73000    0.79800    1.000
    H235     H        0.89040    0.77100    0.81460    1.000
    H236     H        0.96440    0.74980    0.77540    1.000
    C202     C        0.87770    0.68760    0.75240    1.000
    H237     H        0.90650    0.67800    0.71160    1.000
    H238     H        0.83180    0.71360    0.74010    1.000
    C203     C        0.86010    0.62070    0.78540    1.000
    H239     H        0.86280    0.58270    0.75080    1.000
    H240     H        0.80740    0.62450    0.79800    1.000
    C204     C        0.43110    0.73740    0.76220    1.000
    H241     H        0.45980    0.73640    0.80160    1.000
    C205     C        0.45730    0.77690    0.70890    1.000
    H242     H        0.50180    0.80370    0.71360    1.000
    C206     C        0.42060    0.77840    0.64940    1.000
    C207     C        0.36010    0.73650    0.64900    1.000
    H243     H        0.33400    0.73070    0.60850    1.000
    C208     C        0.33530    0.70320    0.70190    1.000
    H244     H        0.28960    0.67820    0.69790    1.000
    C209     C        0.52010    0.90370    0.60170    1.000
    C210     C        0.48830    0.97150    0.60710    1.000
    H245     H        0.43710    0.97790    0.59850    1.000
    C211     C        0.53260    0.03100    0.62540    1.000
    H246     H        0.50930    0.07710    0.62750    1.000
    C212     C        0.63380    0.96090    0.63400    1.000
    H247     H        0.68530    0.95620    0.64210    1.000
    C213     C        0.59440    0.90020    0.61720    1.000
    H248     H        0.61870    0.85460    0.61610    1.000
    C214     C        0.52450    0.76100    0.53020    1.000
    H249     H        0.56370    0.74550    0.56060    1.000
    H250     H        0.54660    0.78550    0.49190    1.000
    H251     H        0.49670    0.71850    0.51510    1.000
    C215     C        0.39360    0.85200    0.51170    1.000
    H252     H        0.35490    0.81420    0.50920    1.000
    H253     H        0.36960    0.89690    0.52800    1.000
    C216     C        0.42040    0.86530    0.44600    1.000
    H254     H        0.37910    0.87930    0.41730    1.000
    H255     H        0.44360    0.82120    0.42860    1.000
    H256     H        0.45690    0.90460    0.44710    1.000
