# CIF file generated by openbabel 3.1.0, see https://openbabel.org
data_I
_chemical_name_common 'image0'
_cell_length_a 13.5004
_cell_length_b 17.0664
_cell_length_c 9.6715
_cell_angle_alpha 90
_cell_angle_beta 90
_cell_angle_gamma 90
_space_group_name_H-M_alt 'P 1'
_space_group_name_Hall 'P 1'
loop_
    _symmetry_equiv_pos_as_xyz
    x,y,z
loop_
    _atom_site_label
    _atom_site_type_symbol
    _atom_site_fract_x
    _atom_site_fract_y
    _atom_site_fract_z
    _atom_site_occupancy
    O1       O        0.10330    0.08340    0.11510    1.000
    C1       C        0.21900    0.21770    0.12260    1.000
    H1       H        0.19630    0.19710    0.20700    1.000
    C2       C        0.04980    0.06900    0.42050    1.000
    H2       H        0.01620    0.11620    0.38680    1.000
    H3       H        0.11820    0.07020    0.38680    1.000
    H4       H        0.13660    0.04650    0.38440    1.000
    O2       O        0.60330    0.58340    0.11510    1.000
    C3       C        0.71900    0.71770    0.12260    1.000
    H5       H        0.69630    0.69710    0.20700    1.000
    C4       C        0.54980    0.56900    0.42050    1.000
    H6       H        0.51620    0.61620    0.38680    1.000
    H7       H        0.61820    0.57020    0.38680    1.000
    H8       H        0.63660    0.54650    0.38440    1.000
    O3       O        0.89670    0.91660    0.11510    1.000
    C5       C        0.78100    0.78230    0.12260    1.000
    H9       H        0.80370    0.80290    0.20700    1.000
    C6       C        0.95020    0.93100    0.42050    1.000
    H10      H        0.98380    0.88380    0.38680    1.000
    H11      H        0.88180    0.92980    0.38680    1.000
    H12      H        0.86340    0.95350    0.38440    1.000
    O4       O        0.39670    0.41660    0.11510    1.000
    C7       C        0.28100    0.28230    0.12260    1.000
    H13      H        0.30370    0.30290    0.20700    1.000
    C8       C        0.45020    0.43100    0.42050    1.000
    H14      H        0.48380    0.38380    0.38680    1.000
    H15      H        0.38180    0.42980    0.38680    1.000
    H16      H        0.36340    0.45350    0.38440    1.000
    O5       O        0.89670    0.08340    0.88490    1.000
    C9       C        0.78100    0.21770    0.87740    1.000
    H17      H        0.80370    0.19710    0.79300    1.000
    C10      C        0.95020    0.06900    0.57950    1.000
    H18      H        0.98380    0.11620    0.61320    1.000
    H19      H        0.88180    0.07020    0.61320    1.000
    H20      H        0.86340    0.04650    0.61560    1.000
    O6       O        0.39670    0.58340    0.88490    1.000
    C11      C        0.28100    0.71770    0.87740    1.000
    H21      H        0.30370    0.69710    0.79300    1.000
    C12      C        0.45020    0.56900    0.57950    1.000
    H22      H        0.48380    0.61620    0.61320    1.000
    H23      H        0.38180    0.57020    0.61320    1.000
    H24      H        0.36340    0.54650    0.61560    1.000
    O7       O        0.10330    0.91660    0.88490    1.000
    C13      C        0.21900    0.78230    0.87740    1.000
    H25      H        0.19630    0.80290    0.79300    1.000
    C14      C        0.04980    0.93100    0.57950    1.000
    H26      H        0.01620    0.88380    0.61320    1.000
    H27      H        0.11820    0.92980    0.61320    1.000
    H28      H        0.13660    0.95350    0.61560    1.000
    O8       O        0.60330    0.41660    0.88490    1.000
    C15      C        0.71900    0.28230    0.87740    1.000
    H29      H        0.69630    0.30290    0.79300    1.000
    C16      C        0.54980    0.43100    0.57950    1.000
    H30      H        0.51620    0.38380    0.61320    1.000
    H31      H        0.61820    0.42980    0.61320    1.000
    H32      H        0.63660    0.45350    0.61560    1.000
    O9       O        0.89670    0.91660    0.88490    1.000
    C17      C        0.78100    0.78230    0.87740    1.000
    H33      H        0.80370    0.80290    0.79300    1.000
    C18      C        0.95020    0.93100    0.57950    1.000
    H34      H        0.98380    0.88380    0.61320    1.000
    H35      H        0.88180    0.92980    0.61320    1.000
    H36      H        0.86340    0.95350    0.61560    1.000
    O10      O        0.39670    0.41660    0.88490    1.000
    C19      C        0.28100    0.28230    0.87740    1.000
    H37      H        0.30370    0.30290    0.79300    1.000
    C20      C        0.45020    0.43100    0.57950    1.000
    H38      H        0.48380    0.38380    0.61320    1.000
    H39      H        0.38180    0.42980    0.61320    1.000
    H40      H        0.36340    0.45350    0.61560    1.000
    O11      O        0.10330    0.08340    0.88490    1.000
    C21      C        0.21900    0.21770    0.87740    1.000
    H41      H        0.19630    0.19710    0.79300    1.000
    C22      C        0.04980    0.06900    0.57950    1.000
    H42      H        0.01620    0.11620    0.61320    1.000
    H43      H        0.11820    0.07020    0.61320    1.000
    H44      H        0.13660    0.04650    0.61560    1.000
    O12      O        0.60330    0.58340    0.88490    1.000
    C23      C        0.71900    0.71770    0.87740    1.000
    H45      H        0.69630    0.69710    0.79300    1.000
    C24      C        0.54980    0.56900    0.57950    1.000
    H46      H        0.51620    0.61620    0.61320    1.000
    H47      H        0.61820    0.57020    0.61320    1.000
    H48      H        0.63660    0.54650    0.61560    1.000
    O13      O        0.10330    0.91660    0.11510    1.000
    C25      C        0.21900    0.78230    0.12260    1.000
    H49      H        0.19630    0.80290    0.20700    1.000
    C26      C        0.04980    0.93100    0.42050    1.000
    H50      H        0.01620    0.88380    0.38680    1.000
    H51      H        0.11820    0.92980    0.38680    1.000
    H52      H        0.13660    0.95350    0.38440    1.000
    O14      O        0.60330    0.41660    0.11510    1.000
    C27      C        0.71900    0.28230    0.12260    1.000
    H53      H        0.69630    0.30290    0.20700    1.000
    C28      C        0.54980    0.43100    0.42050    1.000
    H54      H        0.51620    0.38380    0.38680    1.000
    H55      H        0.61820    0.42980    0.38680    1.000
    H56      H        0.63660    0.45350    0.38440    1.000
    O15      O        0.89670    0.08340    0.11510    1.000
    C29      C        0.78100    0.21770    0.12260    1.000
    H57      H        0.80370    0.19710    0.20700    1.000
    C30      C        0.95020    0.06900    0.42050    1.000
    H58      H        0.98380    0.11620    0.38680    1.000
    H59      H        0.88180    0.07020    0.38680    1.000
    H60      H        0.86340    0.04650    0.38440    1.000
    O16      O        0.39670    0.58340    0.11510    1.000
    C31      C        0.28100    0.71770    0.12260    1.000
    H61      H        0.30370    0.69710    0.20700    1.000
    C32      C        0.45020    0.56900    0.42050    1.000
    H62      H        0.48380    0.61620    0.38680    1.000
    H63      H        0.38180    0.57020    0.38680    1.000
    H64      H        0.36340    0.54650    0.38440    1.000
    C33      C        0.12670    0.11070    0.00000    1.000
    C34      C        0.19040    0.18330    0.00000    1.000
    C35      C        0.62670    0.61070    0.00000    1.000
    C36      C        0.69040    0.68330    0.00000    1.000
    C37      C        0.87330    0.88930    0.00000    1.000
    C38      C        0.80960    0.81670    0.00000    1.000
    C39      C        0.37330    0.38930    0.00000    1.000
    C40      C        0.30960    0.31670    0.00000    1.000
    C41      C        0.87330    0.11070    0.00000    1.000
    C42      C        0.80960    0.18330    0.00000    1.000
    C43      C        0.37330    0.61070    0.00000    1.000
    C44      C        0.30960    0.68330    0.00000    1.000
    C45      C        0.12670    0.88930    0.00000    1.000
    C46      C        0.19040    0.81670    0.00000    1.000
    C47      C        0.62670    0.38930    0.00000    1.000
    C48      C        0.69040    0.31670    0.00000    1.000
    Zn1      Zn       0.00000    0.00000    0.15238    1.000
    N1       N        0.00000    0.00000    0.36630    1.000
    Zn2      Zn       0.50000    0.50000    0.15238    1.000
    N2       N        0.50000    0.50000    0.36630    1.000
    Zn3      Zn       0.00000    0.00000    0.84762    1.000
    N3       N        0.00000    0.00000    0.63370    1.000
    Zn4      Zn       0.50000    0.50000    0.84762    1.000
    N4       N        0.50000    0.50000    0.63370    1.000
    C49      C        0.10170    0.00000    0.41840    1.000
    C50      C        0.60170    0.50000    0.41840    1.000
    C51      C        0.89830    0.00000    0.41840    1.000
    C52      C        0.39830    0.50000    0.41840    1.000
    C53      C        0.89830    0.00000    0.58160    1.000
    C54      C        0.39830    0.50000    0.58160    1.000
    C55      C        0.10170    0.00000    0.58160    1.000
    C56      C        0.60170    0.50000    0.58160    1.000
