# CIF file generated by openbabel 3.1.0, see https://openbabel.org
data_I
_chemical_name_common 'OSAWEL_clean'
_cell_length_a 8.3328
_cell_length_b 8.6794
_cell_length_c 9.9393
_cell_angle_alpha 70.52
_cell_angle_beta 84.459
_cell_angle_gamma 73.722
_space_group_name_H-M_alt 'P 1'
_space_group_name_Hall 'P 1'
loop_
    _symmetry_equiv_pos_as_xyz
    x,y,z
loop_
    _atom_site_label
    _atom_site_type_symbol
    _atom_site_fract_x
    _atom_site_fract_y
    _atom_site_fract_z
    _atom_site_occupancy
    Ca1      Ca       0.32648    0.36337    0.04249    1.000
    Ca2      Ca       0.67352    0.63663    0.95751    1.000
    H1       H        0.22390    0.44260    0.35420    1.000
    H2       H        0.67580    0.55760    0.33320    1.000
    H3       H        0.65450    0.97660    0.92070    1.000
    H4       H        0.95510    0.26490    0.02510    1.000
    H5       H        0.77610    0.55740    0.64580    1.000
    H6       H        0.32420    0.44240    0.66680    1.000
    H7       H        0.34550    0.02340    0.07930    1.000
    H8       H        0.04490    0.73510    0.97490    1.000
    C1       C        0.95110    0.47650    0.22410    1.000
    C2       C        0.97360    0.49170    0.36580    1.000
    C3       C        0.13320    0.46520    0.41350    1.000
    C4       C        0.83770    0.52870    0.45460    1.000
    C5       C        0.66920    0.23210    0.95740    1.000
    C6       C        0.84150    0.11310    0.97610    1.000
    C7       C        0.97330    0.15860    0.01490    1.000
    C8       C        0.86920    0.95270    0.96170    1.000
    C9       C        0.04890    0.52350    0.77590    1.000
    C10      C        0.02640    0.50830    0.63420    1.000
    C11      C        0.86680    0.53480    0.58650    1.000
    C12      C        0.16230    0.47130    0.54540    1.000
    C13      C        0.33080    0.76790    0.04260    1.000
    C14      C        0.15850    0.88690    0.02390    1.000
    C15      C        0.02670    0.84140    0.98510    1.000
    C16      C        0.13080    0.04730    0.03830    1.000
    O1       O        0.07640    0.41890    0.15960    1.000
    O2       O        0.80300    0.52390    0.17720    1.000
    O3       O        0.54970    0.17910    0.93850    1.000
    O4       O        0.64590    0.37720    0.96540    1.000
    O5       O        0.67710    0.56080    0.41470    1.000
    O6       O        0.74250    0.90320    0.92480    1.000
    O7       O        0.92360    0.58110    0.84040    1.000
    O8       O        0.19700    0.47610    0.82280    1.000
    O9       O        0.45030    0.82090    0.06150    1.000
    O10      O        0.35410    0.62280    0.03460    1.000
    O11      O        0.32290    0.43920    0.58530    1.000
    O12      O        0.25750    0.09680    0.07520    1.000
