# CIF file generated by openbabel 3.1.0, see https://openbabel.org
data_I
_chemical_name_common 'TATSIS_clean'
_cell_length_a 9.819
_cell_length_b 11.0731
_cell_length_c 12.6499
_cell_angle_alpha 90
_cell_angle_beta 90
_cell_angle_gamma 99.852
_space_group_name_H-M_alt 'P 1'
_space_group_name_Hall 'P 1'
loop_
    _symmetry_equiv_pos_as_xyz
    x,y,z
loop_
    _atom_site_label
    _atom_site_type_symbol
    _atom_site_fract_x
    _atom_site_fract_y
    _atom_site_fract_z
    _atom_site_occupancy
    Co1      Co       0.87280    0.75077    0.56632    1.000
    Co2      Co       0.37640    0.74812    0.56436    1.000
    Co3      Co       0.12720    0.24923    0.06632    1.000
    Co4      Co       0.62360    0.25188    0.06436    1.000
    H1       H        0.10340    0.36740    0.45860    1.000
    H2       H        0.85150    0.01590    0.51550    1.000
    H3       H        0.45440    0.00780    0.73500    1.000
    H4       H        0.10290    0.24130    0.31270    1.000
    H5       H        0.60290    0.51260    0.83940    1.000
    H6       H        0.10550    0.64690    0.25880    1.000
    H7       H        0.44540    0.13140    0.88480    1.000
    H8       H        0.84110    0.14820    0.37700    1.000
    H9       H        0.12090    0.51920    0.12330    1.000
    H10      H        0.19470    0.62720    0.74580    1.000
    H11      H        0.58790    0.64180    0.69820    1.000
    H12      H        0.85280    0.00780    0.80010    1.000
    H13      H        0.87160    0.86880    0.18190    1.000
    H14      H        0.87180    0.74560    0.32320    1.000
    H15      H        0.19230    0.49420    0.88090    1.000
    H16      H        0.83650    0.13530    0.93980    1.000
    H17      H        0.89660    0.63260    0.95860    1.000
    H18      H        0.14850    0.98410    0.01550    1.000
    H19      H        0.54560    0.99220    0.23500    1.000
    H20      H        0.89710    0.75870    0.81270    1.000
    H21      H        0.39710    0.48740    0.33940    1.000
    H22      H        0.89450    0.35310    0.75880    1.000
    H23      H        0.55460    0.86860    0.38480    1.000
    H24      H        0.15890    0.85180    0.87700    1.000
    H25      H        0.87910    0.48080    0.62330    1.000
    H26      H        0.80530    0.37280    0.24580    1.000
    H27      H        0.41210    0.35820    0.19820    1.000
    H28      H        0.14720    0.99220    0.30010    1.000
    H29      H        0.12840    0.13120    0.68190    1.000
    H30      H        0.12820    0.25440    0.82320    1.000
    H31      H        0.80770    0.50580    0.38090    1.000
    H32      H        0.16350    0.86470    0.43980    1.000
    C1       C        0.65210    0.89780    0.66480    1.000
    C2       C        0.65210    0.98920    0.75410    1.000
    C3       C        0.10460    0.39970    0.39070    1.000
    C4       C        0.85310    0.98570    0.44700    1.000
    C5       C        0.53230    0.03000    0.77700    1.000
    C6       C        0.10720    0.32490    0.30160    1.000
    C7       C        0.40740    0.39820    0.96690    1.000
    C8       C        0.09290    0.60480    0.46650    1.000
    C9       C        0.39750    0.48690    0.87500    1.000
    C10      C        0.10390    0.52390    0.37410    1.000
    C11      C        0.51850    0.53330    0.82020    1.000
    C12      C        0.10790    0.56480    0.27240    1.000
    C13      C        0.52840    0.10710    0.86640    1.000
    C14      C        0.84740    0.06670    0.36400    1.000
    C15      C        0.11540    0.48690    0.19130    1.000
    C16      C        0.27720    0.60170    0.76370    1.000
    C17      C        0.50830    0.61130    0.73630    1.000
    C18      C        0.76860    0.03150    0.81570    1.000
    C19      C        0.86410    0.90130    0.24900    1.000
    C20      C        0.86630    0.82770    0.33390    1.000
    C21      C        0.27430    0.52320    0.84540    1.000
    C22      C        0.84660    0.10900    0.16760    1.000
    C23      C        0.75800    0.10830    0.89940    1.000
    C24      C        0.85130    0.02260    0.25830    1.000
    C25      C        0.34790    0.10220    0.16480    1.000
    C26      C        0.34790    0.01080    0.25410    1.000
    C27      C        0.89540    0.60030    0.89070    1.000
    C28      C        0.14690    0.01430    0.94700    1.000
    C29      C        0.46770    0.97000    0.27700    1.000
    C30      C        0.89280    0.67510    0.80160    1.000
    C31      C        0.59260    0.60180    0.46690    1.000
    C32      C        0.90710    0.39520    0.96650    1.000
    C33      C        0.60250    0.51310    0.37500    1.000
    C34      C        0.89610    0.47610    0.87410    1.000
    C35      C        0.48150    0.46670    0.32020    1.000
    C36      C        0.89210    0.43520    0.77240    1.000
    C37      C        0.47160    0.89290    0.36640    1.000
    C38      C        0.15260    0.93330    0.86400    1.000
    C39      C        0.88460    0.51310    0.69130    1.000
    C40      C        0.72280    0.39830    0.26370    1.000
    C41      C        0.49170    0.38870    0.23630    1.000
    C42      C        0.23140    0.96850    0.31570    1.000
    C43      C        0.13590    0.09870    0.74900    1.000
    C44      C        0.13370    0.17230    0.83390    1.000
    C45      C        0.72570    0.47680    0.34540    1.000
    C46      C        0.15340    0.89100    0.66760    1.000
    C47      C        0.24200    0.89170    0.39940    1.000
    C48      C        0.14870    0.97740    0.75830    1.000
    N1       N        0.11540    0.36520    0.20200    1.000
    N2       N        0.38790    0.64540    0.70700    1.000
    N3       N        0.86070    0.86970    0.43500    1.000
    N4       N        0.64180    0.14570    0.92510    1.000
    N5       N        0.88460    0.63480    0.70200    1.000
    N6       N        0.61210    0.35460    0.20700    1.000
    N7       N        0.13930    0.13030    0.93500    1.000
    N8       N        0.35820    0.85430    0.42510    1.000
    O1       O        0.55520    0.87520    0.60550    1.000
    O2       O        0.29900    0.37090    0.02080    1.000
    O3       O        0.98480    0.64560    0.47440    1.000
    O4       O        0.51820    0.36470    0.98080    1.000
    O5       O        0.19380    0.62570    0.53230    1.000
    O6       O        0.73400    0.14720    0.15960    1.000
    O7       O        0.94750    0.12630    0.10890    1.000
    O8       O        0.76770    0.85160    0.66450    1.000
    O9       O        0.44480    0.12480    0.10550    1.000
    O10      O        0.70100    0.62910    0.52080    1.000
    O11      O        0.01520    0.35440    0.97440    1.000
    O12      O        0.48180    0.63530    0.48080    1.000
    O13      O        0.80620    0.37430    0.03230    1.000
    O14      O        0.26600    0.85280    0.65960    1.000
    O15      O        0.05250    0.87370    0.60890    1.000
    O16      O        0.23230    0.14840    0.16450    1.000
