# CIF file generated by openbabel 3.1.0, see https://openbabel.org
data_I
_chemical_name_common 'image0'
_cell_length_a 20.01
_cell_length_b 13.193
_cell_length_c 9.895
_cell_angle_alpha 90
_cell_angle_beta 113.142
_cell_angle_gamma 90
_space_group_name_H-M_alt 'P 1'
_space_group_name_Hall 'P 1'
loop_
    _symmetry_equiv_pos_as_xyz
    x,y,z
loop_
    _atom_site_label
    _atom_site_type_symbol
    _atom_site_fract_x
    _atom_site_fract_y
    _atom_site_fract_z
    _atom_site_occupancy
    O1       O        0.41754    0.41590    0.35290    1.000
    O2       O        0.41092    0.50670    0.53570    1.000
    O3       O        0.54069    0.61570    0.20420    1.000
    C1       C        0.38520    0.44710    0.43040    1.000
    C2       C        0.30820    0.40990    0.39150    1.000
    C3       C        0.26830    0.37260    0.25270    1.000
    H1       H        0.28880    0.36950    0.18310    1.000
    C4       C        0.19640    0.33920    0.21680    1.000
    C5       C        0.16770    0.34130    0.32230    1.000
    H2       H        0.12040    0.31900    0.29930    1.000
    C6       C        0.20860    0.37610    0.46190    1.000
    H3       H        0.18910    0.37530    0.53320    1.000
    C7       C        0.27900    0.41250    0.49720    1.000
    H4       H        0.30600    0.43810    0.59050    1.000
    C8       C        0.15380    0.30530    0.06470    1.000
    C9       C        0.15490    0.33720    0.93370    1.000
    H5       H        0.18520    0.38610    0.92020    1.000
    C10      C        0.10190    0.28200    0.82590    1.000
    H6       H        0.09040    0.28920    0.72570    1.000
    N1       N        0.06910    0.21690    0.88380    1.000
    N2       N        0.10190    0.23340    0.03020    1.000
    H7       H        0.09090    0.20140    0.09430    1.000
    O4       O        0.91754    0.91590    0.35290    1.000
    O5       O        0.91092    0.00670    0.53570    1.000
    O6       O        0.04069    0.11570    0.20420    1.000
    C11      C        0.88520    0.94710    0.43040    1.000
    C12      C        0.80820    0.90990    0.39150    1.000
    C13      C        0.76830    0.87260    0.25270    1.000
    H8       H        0.78880    0.86950    0.18310    1.000
    C14      C        0.69640    0.83920    0.21680    1.000
    C15      C        0.66770    0.84130    0.32230    1.000
    H9       H        0.62040    0.81900    0.29930    1.000
    C16      C        0.70860    0.87610    0.46190    1.000
    H10      H        0.68910    0.87530    0.53320    1.000
    C17      C        0.77900    0.91250    0.49720    1.000
    H11      H        0.80600    0.93810    0.59050    1.000
    C18      C        0.65380    0.80530    0.06470    1.000
    C19      C        0.65490    0.83720    0.93370    1.000
    H12      H        0.68520    0.88610    0.92020    1.000
    C20      C        0.60190    0.78200    0.82590    1.000
    H13      H        0.59040    0.78920    0.72570    1.000
    N3       N        0.56910    0.71690    0.88380    1.000
    N4       N        0.60190    0.73340    0.03020    1.000
    H14      H        0.59090    0.70140    0.09430    1.000
    O7       O        0.58246    0.41590    0.14710    1.000
    O8       O        0.58908    0.50670    0.96430    1.000
    O9       O        0.45931    0.61570    0.29580    1.000
    C21      C        0.61480    0.44710    0.06960    1.000
    C22      C        0.69180    0.40990    0.10850    1.000
    C23      C        0.73170    0.37260    0.24730    1.000
    H15      H        0.71120    0.36950    0.31690    1.000
    C24      C        0.80360    0.33920    0.28320    1.000
    C25      C        0.83230    0.34130    0.17770    1.000
    H16      H        0.87960    0.31900    0.20070    1.000
    C26      C        0.79140    0.37610    0.03810    1.000
    H17      H        0.81090    0.37530    0.96680    1.000
    C27      C        0.72100    0.41250    0.00280    1.000
    H18      H        0.69400    0.43810    0.90950    1.000
    C28      C        0.84620    0.30530    0.43530    1.000
    C29      C        0.84510    0.33720    0.56630    1.000
    H19      H        0.81480    0.38610    0.57980    1.000
    C30      C        0.89810    0.28200    0.67410    1.000
    H20      H        0.90960    0.28920    0.77430    1.000
    N5       N        0.93090    0.21690    0.61620    1.000
    N6       N        0.89810    0.23340    0.46980    1.000
    H21      H        0.90910    0.20140    0.40570    1.000
    O10      O        0.08246    0.91590    0.14710    1.000
    O11      O        0.08908    0.00670    0.96430    1.000
    O12      O        0.95931    0.11570    0.29580    1.000
    C31      C        0.11480    0.94710    0.06960    1.000
    C32      C        0.19180    0.90990    0.10850    1.000
    C33      C        0.23170    0.87260    0.24730    1.000
    H22      H        0.21120    0.86950    0.31690    1.000
    C34      C        0.30360    0.83920    0.28320    1.000
    C35      C        0.33230    0.84130    0.17770    1.000
    H23      H        0.37960    0.81900    0.20070    1.000
    C36      C        0.29140    0.87610    0.03810    1.000
    H24      H        0.31090    0.87530    0.96680    1.000
    C37      C        0.22100    0.91250    0.00280    1.000
    H25      H        0.19400    0.93810    0.90950    1.000
    C38      C        0.34620    0.80530    0.43530    1.000
    C39      C        0.34510    0.83720    0.56630    1.000
    H26      H        0.31480    0.88610    0.57980    1.000
    C40      C        0.39810    0.78200    0.67410    1.000
    H27      H        0.40960    0.78920    0.77430    1.000
    N7       N        0.43090    0.71690    0.61620    1.000
    N8       N        0.39810    0.73340    0.46980    1.000
    H28      H        0.40910    0.70140    0.40570    1.000
    O13      O        0.58246    0.58410    0.64710    1.000
    O14      O        0.58908    0.49330    0.46430    1.000
    O15      O        0.45931    0.38430    0.79580    1.000
    C41      C        0.61480    0.55290    0.56960    1.000
    C42      C        0.69180    0.59010    0.60850    1.000
    C43      C        0.73170    0.62740    0.74730    1.000
    H29      H        0.71120    0.63050    0.81690    1.000
    C44      C        0.80360    0.66080    0.78320    1.000
    C45      C        0.83230    0.65870    0.67770    1.000
    H30      H        0.87960    0.68100    0.70070    1.000
    C46      C        0.79140    0.62390    0.53810    1.000
    H31      H        0.81090    0.62470    0.46680    1.000
    C47      C        0.72100    0.58750    0.50280    1.000
    H32      H        0.69400    0.56190    0.40950    1.000
    C48      C        0.84620    0.69470    0.93530    1.000
    C49      C        0.84510    0.66280    0.06630    1.000
    H33      H        0.81480    0.61390    0.07980    1.000
    C50      C        0.89810    0.71800    0.17410    1.000
    H34      H        0.90960    0.71080    0.27430    1.000
    N9       N        0.93090    0.78310    0.11620    1.000
    N10      N        0.89810    0.76660    0.96980    1.000
    H35      H        0.90910    0.79860    0.90570    1.000
    O16      O        0.08246    0.08410    0.64710    1.000
    O17      O        0.08908    0.99330    0.46430    1.000
    O18      O        0.95931    0.88430    0.79580    1.000
    C51      C        0.11480    0.05290    0.56960    1.000
    C52      C        0.19180    0.09010    0.60850    1.000
    C53      C        0.23170    0.12740    0.74730    1.000
    H36      H        0.21120    0.13050    0.81690    1.000
    C54      C        0.30360    0.16080    0.78320    1.000
    C55      C        0.33230    0.15870    0.67770    1.000
    H37      H        0.37960    0.18100    0.70070    1.000
    C56      C        0.29140    0.12390    0.53810    1.000
    H38      H        0.31090    0.12470    0.46680    1.000
    C57      C        0.22100    0.08750    0.50280    1.000
    H39      H        0.19400    0.06190    0.40950    1.000
    C58      C        0.34620    0.19470    0.93530    1.000
    C59      C        0.34510    0.16280    0.06630    1.000
    H40      H        0.31480    0.11390    0.07980    1.000
    C60      C        0.39810    0.21800    0.17410    1.000
    H41      H        0.40960    0.21080    0.27430    1.000
    N11      N        0.43090    0.28310    0.11620    1.000
    N12      N        0.39810    0.26660    0.96980    1.000
    H42      H        0.40910    0.29860    0.90570    1.000
    O19      O        0.41754    0.58410    0.85290    1.000
    O20      O        0.41092    0.49330    0.03570    1.000
    O21      O        0.54069    0.38430    0.70420    1.000
    C61      C        0.38520    0.55290    0.93040    1.000
    C62      C        0.30820    0.59010    0.89150    1.000
    C63      C        0.26830    0.62740    0.75270    1.000
    H43      H        0.28880    0.63050    0.68310    1.000
    C64      C        0.19640    0.66080    0.71680    1.000
    C65      C        0.16770    0.65870    0.82230    1.000
    H44      H        0.12040    0.68100    0.79930    1.000
    C66      C        0.20860    0.62390    0.96190    1.000
    H45      H        0.18910    0.62470    0.03320    1.000
    C67      C        0.27900    0.58750    0.99720    1.000
    H46      H        0.30600    0.56190    0.09050    1.000
    C68      C        0.15380    0.69470    0.56470    1.000
    C69      C        0.15490    0.66280    0.43370    1.000
    H47      H        0.18520    0.61390    0.42020    1.000
    C70      C        0.10190    0.71800    0.32590    1.000
    H48      H        0.09040    0.71080    0.22570    1.000
    N13      N        0.06910    0.78310    0.38380    1.000
    N14      N        0.10190    0.76660    0.53020    1.000
    H49      H        0.09090    0.79860    0.59430    1.000
    O22      O        0.91754    0.08410    0.85290    1.000
    O23      O        0.91092    0.99330    0.03570    1.000
    O24      O        0.04069    0.88430    0.70420    1.000
    C71      C        0.88520    0.05290    0.93040    1.000
    C72      C        0.80820    0.09010    0.89150    1.000
    C73      C        0.76830    0.12740    0.75270    1.000
    H50      H        0.78880    0.13050    0.68310    1.000
    C74      C        0.69640    0.16080    0.71680    1.000
    C75      C        0.66770    0.15870    0.82230    1.000
    H51      H        0.62040    0.18100    0.79930    1.000
    C76      C        0.70860    0.12390    0.96190    1.000
    H52      H        0.68910    0.12470    0.03320    1.000
    C77      C        0.77900    0.08750    0.99720    1.000
    H53      H        0.80600    0.06190    0.09050    1.000
    C78      C        0.65380    0.19470    0.56470    1.000
    C79      C        0.65490    0.16280    0.43370    1.000
    H54      H        0.68520    0.11390    0.42020    1.000
    C80      C        0.60190    0.21800    0.32590    1.000
    H55      H        0.59040    0.21080    0.22570    1.000
    N15      N        0.56910    0.28310    0.38380    1.000
    N16      N        0.60190    0.26660    0.53020    1.000
    H56      H        0.59090    0.29860    0.59430    1.000
    Tb1      Tb       0.50000    0.44129    0.25000    1.000
    O25      O        0.50000    0.75820    0.25000    1.000
    N17      N        0.50000    0.66700    0.25000    1.000
    Tb2      Tb       0.00000    0.94129    0.25000    1.000
    O26      O        0.00000    0.25820    0.25000    1.000
    N18      N        0.00000    0.16700    0.25000    1.000
    Tb3      Tb       0.50000    0.55871    0.75000    1.000
    O27      O        0.50000    0.24180    0.75000    1.000
    N19      N        0.50000    0.33300    0.75000    1.000
    Tb4      Tb       0.00000    0.05871    0.75000    1.000
    O28      O        0.00000    0.74180    0.75000    1.000
    N20      N        0.00000    0.83300    0.75000    1.000
