# CIF file generated by openbabel 3.1.0, see https://openbabel.org
data_I
_chemical_name_common 'image0'
_cell_length_a 21.813
_cell_length_b 21.813
_cell_length_c 6.8688
_cell_angle_alpha 90
_cell_angle_beta 90
_cell_angle_gamma 120
_space_group_name_H-M_alt 'P 1'
_space_group_name_Hall 'P 1'
loop_
    _symmetry_equiv_pos_as_xyz
    x,y,z
loop_
    _atom_site_label
    _atom_site_type_symbol
    _atom_site_fract_x
    _atom_site_fract_y
    _atom_site_fract_z
    _atom_site_occupancy
    Fe1      Fe       0.61210    0.28130    0.14500    1.000
    O1       O        0.65210    0.24320    0.95800    1.000
    O2       O        0.64200    0.28350    0.58900    1.000
    O3       O        0.58200    0.20500    0.37000    1.000
    C1       C        0.61380    0.17440    0.87870    1.000
    C2       C        0.59400    0.16490    0.68100    1.000
    C3       C        0.56020    0.09580    0.60290    1.000
    C4       C        0.54490    0.03550    0.71050    1.000
    C5       C        0.56380    0.04650    0.90890    1.000
    C6       C        0.59620    0.11320    0.99110    1.000
    C7       C        0.60500    0.22290    0.54810    1.000
    H1       H        0.54700    0.08980    0.46940    1.000
    H2       H        0.55380    0.00670    0.98810    1.000
    H3       H        0.60700    0.11820    0.12620    1.000
    Fe2      Fe       0.71870    0.33080    0.81167    1.000
    O4       O        0.75680    0.40890    0.62467    1.000
    O5       O        0.71650    0.35850    0.25567    1.000
    O6       O        0.79500    0.37700    0.03667    1.000
    C8       C        0.82560    0.43940    0.54537    1.000
    C9       C        0.83510    0.42910    0.34767    1.000
    C10      C        0.90420    0.46440    0.26957    1.000
    C11      C        0.96450    0.50940    0.37717    1.000
    C12      C        0.95350    0.51730    0.57557    1.000
    C13      C        0.88680    0.48300    0.65777    1.000
    C14      C        0.77710    0.38210    0.21477    1.000
    H4       H        0.91020    0.45720    0.13607    1.000
    H5       H        0.99330    0.54710    0.65477    1.000
    H6       H        0.88180    0.48880    0.79287    1.000
    Fe3      Fe       0.66920    0.38790    0.47833    1.000
    O7       O        0.59110    0.34790    0.29133    1.000
    O8       O        0.64150    0.35800    0.92233    1.000
    O9       O        0.62300    0.41800    0.70333    1.000
    C15      C        0.56060    0.38620    0.21203    1.000
    C16      C        0.57090    0.40600    0.01433    1.000
    C17      C        0.53560    0.43980    0.93623    1.000
    C18      C        0.49060    0.45510    0.04383    1.000
    C19      C        0.48270    0.43620    0.24223    1.000
    C20      C        0.51700    0.40380    0.32443    1.000
    C21      C        0.61790    0.39500    0.88143    1.000
    H7       H        0.54280    0.45300    0.80273    1.000
    H8       H        0.45290    0.44620    0.32143    1.000
    H9       H        0.51120    0.39300    0.45953    1.000
    Fe4      Fe       0.28130    0.61210    0.85500    1.000
    O10      O        0.24320    0.65210    0.04200    1.000
    O11      O        0.28350    0.64200    0.41100    1.000
    O12      O        0.20500    0.58200    0.63000    1.000
    C22      C        0.17440    0.61380    0.12130    1.000
    C23      C        0.16490    0.59400    0.31900    1.000
    C24      C        0.09580    0.56020    0.39710    1.000
    C25      C        0.03550    0.54490    0.28950    1.000
    C26      C        0.04650    0.56380    0.09110    1.000
    C27      C        0.11320    0.59620    0.00890    1.000
    C28      C        0.22290    0.60500    0.45190    1.000
    H10      H        0.08980    0.54700    0.53060    1.000
    H11      H        0.00670    0.55380    0.01190    1.000
    H12      H        0.11820    0.60700    0.87380    1.000
    Fe5      Fe       0.33080    0.71870    0.18833    1.000
    O13      O        0.40890    0.75680    0.37533    1.000
    O14      O        0.35850    0.71650    0.74433    1.000
    O15      O        0.37700    0.79500    0.96333    1.000
    C29      C        0.43940    0.82560    0.45463    1.000
    C30      C        0.42910    0.83510    0.65233    1.000
    C31      C        0.46440    0.90420    0.73043    1.000
    C32      C        0.50940    0.96450    0.62283    1.000
    C33      C        0.51730    0.95350    0.42443    1.000
    C34      C        0.48300    0.88680    0.34223    1.000
    C35      C        0.38210    0.77710    0.78523    1.000
    H13      H        0.45720    0.91020    0.86393    1.000
    H14      H        0.54710    0.99330    0.34523    1.000
    H15      H        0.48880    0.88180    0.20713    1.000
    Fe6      Fe       0.38790    0.66920    0.52167    1.000
    O16      O        0.34790    0.59110    0.70867    1.000
    O17      O        0.35800    0.64150    0.07767    1.000
    O18      O        0.41800    0.62300    0.29667    1.000
    C36      C        0.38620    0.56060    0.78797    1.000
    C37      C        0.40600    0.57090    0.98567    1.000
    C38      C        0.43980    0.53560    0.06377    1.000
    C39      C        0.45510    0.49060    0.95617    1.000
    C40      C        0.43620    0.48270    0.75777    1.000
    C41      C        0.40380    0.51700    0.67557    1.000
    C42      C        0.39500    0.61790    0.11857    1.000
    H16      H        0.45300    0.54280    0.19727    1.000
    H17      H        0.44620    0.45290    0.67857    1.000
    H18      H        0.39300    0.51120    0.54047    1.000
