# CIF file generated by openbabel 3.1.0, see https://openbabel.org
data_I
_chemical_name_common 'PORLAL_clean'
_cell_length_a 8.2096
_cell_length_b 14.998
_cell_length_c 36.8727
_cell_angle_alpha 90
_cell_angle_beta 90.8824
_cell_angle_gamma 90
_space_group_name_H-M_alt 'P 1'
_space_group_name_Hall 'P 1'
loop_
    _symmetry_equiv_pos_as_xyz
    x,y,z
loop_
    _atom_site_label
    _atom_site_type_symbol
    _atom_site_fract_x
    _atom_site_fract_y
    _atom_site_fract_z
    _atom_site_occupancy
    Gd1      Gd       0.16545    0.09808    0.48678    1.000
    Gd2      Gd       0.83455    0.90192    0.51322    1.000
    Gd3      Gd       0.66545    0.90192    0.98678    1.000
    Gd4      Gd       0.33455    0.09808    0.01322    1.000
    H1       H        0.53470    0.95350    0.26060    1.000
    H2       H        0.59050    0.37270    0.07370    1.000
    H3       H        0.06610    0.31170    0.77220    1.000
    H4       H        0.41500    0.33590    0.56470    1.000
    H5       H        0.73670    0.09040    0.65780    1.000
    H6       H        0.93220    0.39620    0.88800    1.000
    H7       H        0.40710    0.28770    0.88710    1.000
    H8       H        0.91500    0.66410    0.06470    1.000
    H9       H        0.09050    0.62730    0.57370    1.000
    H10      H        0.66010    0.66930    0.49080    1.000
    H11      H        0.93390    0.68830    0.22780    1.000
    H12      H        0.39100    0.37130    0.97490    1.000
    H13      H        0.90710    0.71230    0.38710    1.000
    H14      H        0.86090    0.42500    0.54550    1.000
    H15      H        0.04530    0.91430    0.09360    1.000
    H16      H        0.58500    0.66410    0.43530    1.000
    H17      H        0.43220    0.60380    0.38800    1.000
    H18      H        0.83990    0.66930    0.00920    1.000
    H19      H        0.14280    0.75250    0.00230    1.000
    H20      H        0.08420    0.67070    0.28070    1.000
    H21      H        0.03470    0.04650    0.76060    1.000
    H22      H        0.62530    0.02160    0.13280    1.000
    H23      H        0.98800    0.18700    0.57030    1.000
    H24      H        0.41580    0.67070    0.21930    1.000
    H25      H        0.20230    0.52470    0.91520    1.000
    H26      H        0.35720    0.75250    0.49770    1.000
    H27      H        0.26330    0.90960    0.34220    1.000
    H28      H        0.54530    0.08570    0.59360    1.000
    H29      H        0.12530    0.97840    0.63280    1.000
    H30      H        0.62320    0.06560    0.79160    1.000
    H31      H        0.21490    0.28560    0.82170    1.000
    H32      H        0.16010    0.33070    0.99080    1.000
    H33      H        0.37680    0.93440    0.20840    1.000
    H34      H        0.06780    0.60380    0.11200    1.000
    H35      H        0.36090    0.57500    0.04550    1.000
    H36      H        0.01200    0.81300    0.42970    1.000
    H37      H        0.45470    0.91430    0.40640    1.000
    H38      H        0.90950    0.37270    0.42630    1.000
    H39      H        0.70230    0.47530    0.41520    1.000
    H40      H        0.37470    0.97840    0.86720    1.000
    H41      H        0.58420    0.32930    0.78070    1.000
    H42      H        0.91580    0.32930    0.71930    1.000
    H43      H        0.56610    0.68830    0.27220    1.000
    H44      H        0.10900    0.37130    0.52510    1.000
    H45      H        0.29770    0.52470    0.58480    1.000
    H46      H        0.79770    0.47530    0.08480    1.000
    H47      H        0.56780    0.39620    0.61200    1.000
    H48      H        0.87680    0.06560    0.70840    1.000
    H49      H        0.48800    0.81300    0.07030    1.000
    H50      H        0.12320    0.93440    0.29160    1.000
    H51      H        0.51200    0.18700    0.92970    1.000
    H52      H        0.85720    0.24750    0.99770    1.000
    H53      H        0.60900    0.62870    0.02510    1.000
    H54      H        0.46530    0.04650    0.73940    1.000
    H55      H        0.71490    0.71440    0.32170    1.000
    H56      H        0.08500    0.33590    0.93530    1.000
    H57      H        0.76330    0.09040    0.84220    1.000
    H58      H        0.09290    0.28770    0.61290    1.000
    H59      H        0.43390    0.31170    0.72780    1.000
    H60      H        0.23670    0.90960    0.15780    1.000
    H61      H        0.95470    0.08570    0.90640    1.000
    H62      H        0.87470    0.02160    0.36720    1.000
    H63      H        0.89100    0.62870    0.47490    1.000
    H64      H        0.64280    0.24750    0.50230    1.000
    H65      H        0.28510    0.28560    0.67830    1.000
    H66      H        0.40950    0.62730    0.92630    1.000
    H67      H        0.59290    0.71230    0.11290    1.000
    H68      H        0.63910    0.42500    0.95450    1.000
    H69      H        0.33990    0.33070    0.50920    1.000
    H70      H        0.96530    0.95350    0.23940    1.000
    H71      H        0.78510    0.71440    0.17830    1.000
    H72      H        0.13910    0.57500    0.45450    1.000
    C1       C        0.12112    0.80050    0.29152    1.000
    C2       C        0.99462    0.01030    0.56872    1.000
    C3       C        0.68623    0.80890    0.14603    1.000
    C4       C        0.43310    0.17680    0.72830    1.000
    C5       C        0.22005    0.78740    0.32485    1.000
    C6       C        0.15492    0.70810    0.98492    1.000
    C7       C        0.29636    0.70060    0.96496    1.000
    C8       C        0.37525    0.03940    0.87185    1.000
    C9       C        0.62475    0.96060    0.12815    1.000
    C10      C        0.95230    0.14690    0.90250    1.000
    C11      C        0.45230    0.85310    0.40250    1.000
    C12      C        0.27995    0.78740    0.17515    1.000
    C13      C        0.41571    0.54520    0.02721    1.000
    C14      C        0.02974    0.26200    0.75934    1.000
    C15      C        0.53549    0.79390    0.42539    1.000
    C16      C        0.34969    0.46930    0.01169    1.000
    C17      C        0.93840    0.33490    0.89130    1.000
    C18      C        0.84969    0.53070    0.51169    1.000
    C19      C        0.39577    0.22650    0.88387    1.000
    C20      C        0.19693    0.09930    0.65223    1.000
    C21      C        0.87525    0.96060    0.37185    1.000
    C22      C        0.96451    0.79390    0.07461    1.000
    C23      C        0.43467    0.42320    0.98477    1.000
    C24      C        0.92859    0.23360    0.47189    1.000
    C25      C        0.18867    0.43510    0.02337    1.000
    C26      C        0.64250    0.27610    0.63220    1.000
    C27      C        0.69024    0.43040    0.43234    1.000
    C28      C        0.55222    0.92660    0.09712    1.000
    C29      C        0.34508    0.70810    0.51508    1.000
    C30      C        0.13438    0.81590    0.12648    1.000
    C31      C        0.97197    0.70180    0.08037    1.000
    C32      C        0.58470    0.11520    0.77900    1.000
    C33      C        0.42859    0.76640    0.97189    1.000
    C34      C        0.45996    0.16600    0.90876    1.000
    C35      C        0.03303    0.64680    0.97793    1.000
    C36      C        0.56200    0.27210    0.77230    1.000
    C37      C        0.56160    0.33490    0.60870    1.000
    C38      C        0.44778    0.07340    0.90288    1.000
    C39      C        0.77995    0.21260    0.67515    1.000
    C40      C        0.31133    0.43510    0.47663    1.000
    C41      C        0.56690    0.82320    0.27170    1.000
    C42      C        0.12475    0.03940    0.62815    1.000
    C43      C        0.46697    0.64680    0.52207    1.000
    C44      C        0.54004    0.83400    0.09124    1.000
    C45      C        0.16813    0.16200    0.80453    1.000
    C46      C        0.02803    0.29820    0.91963    1.000
    C47      C        0.18688    0.63150    0.56088    1.000
    C48      C        0.45316    0.57790    0.54746    1.000
    C49      C        0.68867    0.56490    0.52337    1.000
    C50      C        0.49010    0.10370    0.74750    1.000
    C51      C        0.31377    0.19110    0.85397    1.000
    C52      C        0.13530    0.16830    0.95590    1.000
    C53      C        0.06200    0.72790    0.27230    1.000
    C54      C        0.04004    0.16600    0.59124    1.000
    C55      C        0.66813    0.83800    0.30453    1.000
    C56      C        0.04770    0.85310    0.09750    1.000
    C57      C        0.93467    0.57680    0.48477    1.000
    C58      C        0.80976    0.43040    0.06766    1.000
    C59      C        0.63530    0.83170    0.45590    1.000
    C60      C        0.93310    0.82320    0.22830    1.000
    C61      C        0.47026    0.26200    0.74066    1.000
    C62      C        0.33187    0.16200    0.69547    1.000
    C63      C        0.30307    0.09930    0.84777    1.000
    C64      C        0.63438    0.18410    0.62648    1.000
    C65      C        0.81377    0.80890    0.35397    1.000
    C66      C        0.47197    0.29820    0.58037    1.000
    C67      C        0.50990    0.89630    0.25250    1.000
    C68      C        0.30976    0.56960    0.56766    1.000
    C69      C        0.00990    0.10370    0.75250    1.000
    C70      C        0.62112    0.19950    0.79152    1.000
    C71      C        0.04684    0.57790    0.95254    1.000
    C72      C        0.96697    0.35320    0.02207    1.000
    C73      C        0.99010    0.89630    0.24750    1.000
    C74      C        0.18623    0.19110    0.64603    1.000
    C75      C        0.36562    0.81590    0.37352    1.000
    C76      C        0.81312    0.36850    0.43912    1.000
    C77      C        0.36470    0.16830    0.54410    1.000
    C78      C        0.69693    0.90070    0.15223    1.000
    C79      C        0.95316    0.42210    0.04746    1.000
    C80      C        0.70364    0.29940    0.03504    1.000
    C81      C        0.65492    0.29190    0.48492    1.000
    C82      C        0.41530    0.88480    0.22100    1.000
    C83      C        0.06690    0.17680    0.77170    1.000
    C84      C        0.06533    0.42320    0.51523    1.000
    C85      C        0.95996    0.83400    0.40876    1.000
    C86      C        0.35750    0.72390    0.36780    1.000
    C87      C        0.19024    0.56960    0.93234    1.000
    C88      C        0.52974    0.73800    0.25934    1.000
    C89      C        0.52803    0.70180    0.41963    1.000
    C90      C        0.85750    0.27610    0.86780    1.000
    C91      C        0.68688    0.36850    0.06088    1.000
    C92      C        0.06160    0.66510    0.10870    1.000
    C93      C        0.91530    0.11520    0.72100    1.000
    C94      C        0.79636    0.29940    0.46496    1.000
    C95      C        0.50538    0.01030    0.93128    1.000
    C96      C        0.20364    0.70060    0.53504    1.000
    C97      C        0.46451    0.20610    0.57461    1.000
    C98      C        0.56533    0.57680    0.01523    1.000
    C99      C        0.14250    0.72390    0.13220    1.000
    C100     C        0.03549    0.20610    0.92539    1.000
    C101     C        0.31312    0.63150    0.93912    1.000
    C102     C        0.54684    0.42210    0.45254    1.000
    C103     C        0.83187    0.83800    0.19547    1.000
    C104     C        0.57141    0.23360    0.02811    1.000
    C105     C        0.72005    0.21260    0.82485    1.000
    C106     C        0.43800    0.72790    0.22770    1.000
    C107     C        0.08429    0.54520    0.47279    1.000
    C108     C        0.86562    0.18410    0.87352    1.000
    C109     C        0.81133    0.56490    0.97663    1.000
    C110     C        0.94778    0.92660    0.40288    1.000
    C111     C        0.43840    0.66510    0.39130    1.000
    C112     C        0.89577    0.77350    0.38387    1.000
    C113     C        0.93800    0.27210    0.72770    1.000
    C114     C        0.05222    0.07340    0.59712    1.000
    C115     C        0.58429    0.45480    0.97279    1.000
    C116     C        0.37888    0.80050    0.20848    1.000
    C117     C        0.49462    0.98970    0.06872    1.000
    C118     C        0.97026    0.73800    0.24066    1.000
    C119     C        0.84508    0.29190    0.01508    1.000
    C120     C        0.54770    0.14690    0.59750    1.000
    C121     C        0.87888    0.19950    0.70848    1.000
    C122     C        0.53303    0.35320    0.47793    1.000
    C123     C        0.10423    0.22650    0.61613    1.000
    C124     C        0.86470    0.83170    0.04410    1.000
    C125     C        0.60423    0.77350    0.11613    1.000
    C126     C        0.07141    0.76640    0.52811    1.000
    C127     C        0.00538    0.98970    0.43128    1.000
    C128     C        0.08470    0.88480    0.27900    1.000
    C129     C        0.15031    0.46930    0.48831    1.000
    C130     C        0.65031    0.53070    0.98831    1.000
    C131     C        0.91571    0.45480    0.52721    1.000
    C132     C        0.80307    0.90070    0.34777    1.000
    N1       N        0.61801    0.63640    0.50731    1.000
    N2       N        0.72182    0.14660    0.65432    1.000
    N3       N        0.22182    0.85340    0.15432    1.000
    N4       N        0.77818    0.14660    0.84568    1.000
    N5       N        0.88199    0.63640    0.99269    1.000
    N6       N        0.73454    0.29200    0.66274    1.000
    N7       N        0.26546    0.70800    0.33726    1.000
    N8       N        0.78819    0.91660    0.18299    1.000
    N9       N        0.59500    0.52680    0.54740    1.000
    N10      N        0.21181    0.08340    0.81701    1.000
    N11      N        0.38199    0.36360    0.49269    1.000
    N12      N        0.11801    0.36360    0.00731    1.000
    N13      N        0.77203    0.77050    0.17453    1.000
    N14      N        0.22797    0.22950    0.82547    1.000
    N15      N        0.72797    0.77050    0.32547    1.000
    N16      N        0.23454    0.70800    0.16274    1.000
    N17      N        0.40500    0.47320    0.45260    1.000
    N18      N        0.90500    0.52680    0.95260    1.000
    N19      N        0.27818    0.85340    0.34568    1.000
    N20      N        0.28819    0.08340    0.68299    1.000
    N21      N        0.27203    0.22950    0.67453    1.000
    N22      N        0.09500    0.47320    0.04740    1.000
    N23      N        0.71181    0.91660    0.31701    1.000
    N24      N        0.76546    0.29200    0.83726    1.000
    O1       O        0.11792    0.08790    0.96552    1.000
    O2       O        0.58630    0.94190    0.92280    1.000
    O3       O        0.38208    0.08790    0.53448    1.000
    O4       O        0.97069    0.97660    0.46489    1.000
    O5       O        0.90539    0.17080    0.49419    1.000
    O6       O        0.93577    0.76090    0.54427    1.000
    O7       O        0.88208    0.91210    0.03448    1.000
    O8       O        0.09461    0.82920    0.50581    1.000
    O9       O        0.08630    0.05810    0.42280    1.000
    O10      O        0.24148    0.21790    0.97208    1.000
    O11      O        0.06423    0.23910    0.45573    1.000
    O12      O        0.59461    0.17080    0.00581    1.000
    O13      O        0.61792    0.91210    0.46552    1.000
    O14      O        0.25852    0.21790    0.52792    1.000
    O15      O        0.56423    0.76090    0.95573    1.000
    O16      O        0.02931    0.02340    0.53511    1.000
    O17      O        0.74148    0.78210    0.47208    1.000
    O18      O        0.40539    0.82920    0.99419    1.000
    O19      O        0.91370    0.94190    0.57720    1.000
    O20      O        0.75852    0.78210    0.02792    1.000
    O21      O        0.52931    0.97660    0.03511    1.000
    O22      O        0.43577    0.23910    0.04427    1.000
    O23      O        0.47069    0.02340    0.96489    1.000
    O24      O        0.41370    0.05810    0.07720    1.000
