# CIF file generated by openbabel 3.1.0, see https://openbabel.org
data_I
_chemical_name_common 'UHADAI_clean'
_cell_length_a 9.675
_cell_length_b 17.489
_cell_length_c 14.354
_cell_angle_alpha 75.416
_cell_angle_beta 90
_cell_angle_gamma 90
_space_group_name_H-M_alt 'P 1'
_space_group_name_Hall 'P 1'
loop_
    _symmetry_equiv_pos_as_xyz
    x,y,z
loop_
    _atom_site_label
    _atom_site_type_symbol
    _atom_site_fract_x
    _atom_site_fract_y
    _atom_site_fract_z
    _atom_site_occupancy
    Cd1      Cd       0.45497    0.67853    0.45142    1.000
    Cd2      Cd       0.96228    0.83239    0.54799    1.000
    Cd3      Cd       0.95497    0.32147    0.04858    1.000
    Cd4      Cd       0.46228    0.16761    0.95201    1.000
    Cd5      Cd       0.54503    0.32147    0.54858    1.000
    Cd6      Cd       0.03772    0.16761    0.45201    1.000
    Cd7      Cd       0.04503    0.67853    0.95142    1.000
    Cd8      Cd       0.53772    0.83239    0.04799    1.000
    C1       C        0.24410    0.72160    0.62690    1.000
    C2       C        0.14740    0.75680    0.39810    1.000
    C3       C        0.34580    0.48250    0.44890    1.000
    C4       C        0.63030    0.70030    0.24210    1.000
    C5       C        0.65380    0.84260    0.44620    1.000
    C6       C        0.92430    0.00360    0.60380    1.000
    C7       C        0.74410    0.27840    0.87310    1.000
    C8       C        0.64740    0.24320    0.10190    1.000
    C9       C        0.84580    0.51750    0.05110    1.000
    C10      C        0.13030    0.29970    0.25790    1.000
    C11      C        0.15380    0.15740    0.05380    1.000
    C12      C        0.42430    0.99640    0.89620    1.000
    C13      C        0.75590    0.27840    0.37310    1.000
    C14      C        0.85260    0.24320    0.60190    1.000
    C15      C        0.65420    0.51750    0.55110    1.000
    C16      C        0.36970    0.29970    0.75790    1.000
    C17      C        0.34620    0.15740    0.55380    1.000
    C18      C        0.07570    0.99640    0.39620    1.000
    C19      C        0.25590    0.72160    0.12690    1.000
    C20      C        0.35260    0.75680    0.89810    1.000
    C21      C        0.15420    0.48250    0.94890    1.000
    C22      C        0.86970    0.70030    0.74210    1.000
    C23      C        0.84620    0.84260    0.94620    1.000
    C24      C        0.57570    0.00360    0.10380    1.000
    S1       S        0.37941    0.66377    0.63875    1.000
    S2       S        0.97787    0.75808    0.40345    1.000
    S3       S        0.26830    0.56822    0.40984    1.000
    S4       S        0.72118    0.72478    0.14196    1.000
    S5       S        0.75115    0.91953    0.44469    1.000
    S6       S        0.95725    0.91902    0.68031    1.000
    S7       S        0.87941    0.33623    0.86125    1.000
    S8       S        0.47787    0.24192    0.09655    1.000
    S9       S        0.76830    0.43178    0.09016    1.000
    S10      S        0.22118    0.27522    0.35804    1.000
    S11      S        0.25115    0.08047    0.05531    1.000
    S12      S        0.45725    0.08098    0.81969    1.000
    S13      S        0.62059    0.33623    0.36125    1.000
    S14      S        0.02213    0.24192    0.59655    1.000
    S15      S        0.73170    0.43178    0.59016    1.000
    S16      S        0.27882    0.27522    0.85804    1.000
    S17      S        0.24885    0.08047    0.55531    1.000
    S18      S        0.04275    0.08098    0.31969    1.000
    S19      S        0.12059    0.66377    0.13875    1.000
    S20      S        0.52213    0.75808    0.90345    1.000
    S21      S        0.23170    0.56822    0.90984    1.000
    S22      S        0.77882    0.72478    0.64196    1.000
    S23      S        0.74885    0.91953    0.94469    1.000
    S24      S        0.54275    0.91902    0.18031    1.000
    N1       N        0.15000    0.76230    0.61820    1.000
    N2       N        0.26790    0.75630    0.39320    1.000
    N3       N        0.39650    0.42190    0.47640    1.000
    N4       N        0.56870    0.68110    0.31220    1.000
    N5       N        0.58370    0.78880    0.45040    1.000
    N6       N        0.89960    0.06310    0.54990    1.000
    N7       N        0.65000    0.23770    0.88180    1.000
    N8       N        0.76790    0.24370    0.10680    1.000
    N9       N        0.89650    0.57810    0.02360    1.000
    N10      N        0.06870    0.31890    0.18780    1.000
    N11      N        0.08370    0.21120    0.04960    1.000
    N12      N        0.39960    0.93690    0.95010    1.000
    N13      N        0.85000    0.23770    0.38180    1.000
    N14      N        0.73210    0.24370    0.60680    1.000
    N15      N        0.60350    0.57810    0.52360    1.000
    N16      N        0.43130    0.31890    0.68780    1.000
    N17      N        0.41630    0.21120    0.54960    1.000
    N18      N        0.10040    0.93690    0.45010    1.000
    N19      N        0.35000    0.76230    0.11820    1.000
    N20      N        0.23210    0.75630    0.89320    1.000
    N21      N        0.10350    0.42190    0.97640    1.000
    N22      N        0.93130    0.68110    0.81220    1.000
    N23      N        0.91630    0.78880    0.95040    1.000
    N24      N        0.60040    0.06310    0.04990    1.000
