# CIF file generated by openbabel 3.1.0, see https://openbabel.org
data_I
_chemical_name_common 'image0'
_cell_length_a 13.368
_cell_length_b 23.922
_cell_length_c 13.092
_cell_angle_alpha 90
_cell_angle_beta 90
_cell_angle_gamma 90
_space_group_name_H-M_alt 'P 1'
_space_group_name_Hall 'P 1'
loop_
    _symmetry_equiv_pos_as_xyz
    x,y,z
loop_
    _atom_site_label
    _atom_site_type_symbol
    _atom_site_fract_x
    _atom_site_fract_y
    _atom_site_fract_z
    _atom_site_occupancy
    O1       O        0.07060    0.42470    0.99720    1.000
    O2       O        0.19640    0.36430    0.99330    1.000
    C1       C        0.15780    0.41080    0.96500    1.000
    O3       O        0.86930    0.53340    0.58410    1.000
    O4       O        0.64500    0.75950    0.60920    1.000
    O5       O        0.48390    0.73990    0.61820    1.000
    C2       C        0.57320    0.72500    0.61110    1.000
    C3       C        0.60150    0.66350    0.60110    1.000
    Tb1      Tb       0.05756    0.65650    0.61083    1.000
    O6       O        0.06570    0.56170    0.70630    1.000
    C4       C        0.66280    0.55230    0.58200    1.000
    H1       H        0.68370    0.51560    0.57200    1.000
    C5       C        0.73200    0.59450    0.59390    1.000
    C6       C        0.70030    0.65030    0.60030    1.000
    H2       H        0.74760    0.67870    0.60400    1.000
    C7       C        0.84360    0.58300    0.59560    1.000
    C8       C        0.56060    0.56520    0.58510    1.000
    O7       O        0.19590    0.61600    0.70470    1.000
    C9       C        0.31980    0.52730    0.78250    1.000
    H3       H        0.35490    0.55550    0.74910    1.000
    C10      C        0.16340    0.48920    0.84510    1.000
    H4       H        0.09400    0.49120    0.84850    1.000
    O8       O        0.89910    0.62390    0.60490    1.000
    C11      C        0.52950    0.62080    0.59920    1.000
    H5       H        0.46200    0.62910    0.60710    1.000
    N1       N        0.47670    0.47780    0.83060    1.000
    N2       N        0.48310    0.52400    0.58110    1.000
    C12      C        0.21620    0.52760    0.78430    1.000
    C13      C        0.21310    0.44850    0.89990    1.000
    C14      C        0.37100    0.48350    0.83210    1.000
    C15      C        0.31770    0.44380    0.88650    1.000
    H6       H        0.35130    0.41350    0.91480    1.000
    C16      C        0.15590    0.57170    0.72610    1.000
    O9       O        0.57060    0.92470    0.49720    1.000
    O10      O        0.69640    0.86430    0.49330    1.000
    C17      C        0.65780    0.91080    0.46500    1.000
    O11      O        0.36930    0.03340    0.08410    1.000
    O12      O        0.14500    0.25950    0.10920    1.000
    O13      O        0.98390    0.23990    0.11820    1.000
    C18      C        0.07320    0.22500    0.11110    1.000
    C19      C        0.10150    0.16350    0.10110    1.000
    Tb2      Tb       0.55756    0.15650    0.11083    1.000
    O14      O        0.56570    0.06170    0.20630    1.000
    C20      C        0.16280    0.05230    0.08200    1.000
    H7       H        0.18370    0.01560    0.07200    1.000
    C21      C        0.23200    0.09450    0.09390    1.000
    C22      C        0.20030    0.15030    0.10030    1.000
    H8       H        0.24760    0.17870    0.10400    1.000
    C23      C        0.34360    0.08300    0.09560    1.000
    C24      C        0.06060    0.06520    0.08510    1.000
    O15      O        0.69590    0.11600    0.20470    1.000
    C25      C        0.81980    0.02730    0.28250    1.000
    H9       H        0.85490    0.05550    0.24910    1.000
    C26      C        0.66340    0.98920    0.34510    1.000
    H10      H        0.59400    0.99120    0.34850    1.000
    O16      O        0.39910    0.12390    0.10490    1.000
    C27      C        0.02950    0.12080    0.09920    1.000
    H11      H        0.96200    0.12910    0.10710    1.000
    N3       N        0.97670    0.97780    0.33060    1.000
    N4       N        0.98310    0.02400    0.08110    1.000
    C28      C        0.71620    0.02760    0.28430    1.000
    C29      C        0.71310    0.94850    0.39990    1.000
    C30      C        0.87100    0.98350    0.33210    1.000
    C31      C        0.81770    0.94380    0.38650    1.000
    H12      H        0.85130    0.91350    0.41480    1.000
    C32      C        0.65590    0.07170    0.22610    1.000
    O17      O        0.92940    0.57530    0.99720    1.000
    O18      O        0.80360    0.63570    0.99330    1.000
    C33      C        0.84220    0.58920    0.96500    1.000
    O19      O        0.13070    0.46660    0.58410    1.000
    O20      O        0.35500    0.24050    0.60920    1.000
    O21      O        0.51610    0.26010    0.61820    1.000
    C34      C        0.42680    0.27500    0.61110    1.000
    C35      C        0.39850    0.33650    0.60110    1.000
    Tb3      Tb       0.94244    0.34350    0.61083    1.000
    O22      O        0.93430    0.43830    0.70630    1.000
    C36      C        0.33720    0.44770    0.58200    1.000
    H13      H        0.31630    0.48440    0.57200    1.000
    C37      C        0.26800    0.40550    0.59390    1.000
    C38      C        0.29970    0.34970    0.60030    1.000
    H14      H        0.25240    0.32130    0.60400    1.000
    C39      C        0.15640    0.41700    0.59560    1.000
    C40      C        0.43940    0.43480    0.58510    1.000
    O23      O        0.80410    0.38400    0.70470    1.000
    C41      C        0.68020    0.47270    0.78250    1.000
    H15      H        0.64510    0.44450    0.74910    1.000
    C42      C        0.83660    0.51080    0.84510    1.000
    H16      H        0.90600    0.50880    0.84850    1.000
    O24      O        0.10090    0.37610    0.60490    1.000
    C43      C        0.47050    0.37920    0.59920    1.000
    H17      H        0.53800    0.37090    0.60710    1.000
    N5       N        0.52330    0.52220    0.83060    1.000
    N6       N        0.51690    0.47600    0.58110    1.000
    C44      C        0.78380    0.47240    0.78430    1.000
    C45      C        0.78690    0.55150    0.89990    1.000
    C46      C        0.62900    0.51650    0.83210    1.000
    C47      C        0.68230    0.55620    0.88650    1.000
    H18      H        0.64870    0.58650    0.91480    1.000
    C48      C        0.84410    0.42830    0.72610    1.000
    O25      O        0.42940    0.07530    0.49720    1.000
    O26      O        0.30360    0.13570    0.49330    1.000
    C49      C        0.34220    0.08920    0.46500    1.000
    O27      O        0.63070    0.96660    0.08410    1.000
    O28      O        0.85500    0.74050    0.10920    1.000
    O29      O        0.01610    0.76010    0.11820    1.000
    C50      C        0.92680    0.77500    0.11110    1.000
    C51      C        0.89850    0.83650    0.10110    1.000
    Tb4      Tb       0.44244    0.84350    0.11083    1.000
    O30      O        0.43430    0.93830    0.20630    1.000
    C52      C        0.83720    0.94770    0.08200    1.000
    H19      H        0.81630    0.98440    0.07200    1.000
    C53      C        0.76800    0.90550    0.09390    1.000
    C54      C        0.79970    0.84970    0.10030    1.000
    H20      H        0.75240    0.82130    0.10400    1.000
    C55      C        0.65640    0.91700    0.09560    1.000
    C56      C        0.93940    0.93480    0.08510    1.000
    O31      O        0.30410    0.88400    0.20470    1.000
    C57      C        0.18020    0.97270    0.28250    1.000
    H21      H        0.14510    0.94450    0.24910    1.000
    C58      C        0.33660    0.01080    0.34510    1.000
    H22      H        0.40600    0.00880    0.34850    1.000
    O32      O        0.60090    0.87610    0.10490    1.000
    C59      C        0.97050    0.87920    0.09920    1.000
    H23      H        0.03800    0.87090    0.10710    1.000
    N7       N        0.02330    0.02220    0.33060    1.000
    N8       N        0.01690    0.97600    0.08110    1.000
    C60      C        0.28380    0.97240    0.28430    1.000
    C61      C        0.28690    0.05150    0.39990    1.000
    C62      C        0.12900    0.01650    0.33210    1.000
    C63      C        0.18230    0.05620    0.38650    1.000
    H24      H        0.14870    0.08650    0.41480    1.000
    C64      C        0.34410    0.92830    0.22610    1.000
    O33      O        0.57060    0.07530    0.99720    1.000
    O34      O        0.69640    0.13570    0.99330    1.000
    C65      C        0.65780    0.08920    0.96500    1.000
    O35      O        0.36930    0.96660    0.58410    1.000
    O36      O        0.14500    0.74050    0.60920    1.000
    O37      O        0.98390    0.76010    0.61820    1.000
    C66      C        0.07320    0.77500    0.61110    1.000
    C67      C        0.10150    0.83650    0.60110    1.000
    Tb5      Tb       0.55756    0.84350    0.61083    1.000
    O38      O        0.56570    0.93830    0.70630    1.000
    C68      C        0.16280    0.94770    0.58200    1.000
    H25      H        0.18370    0.98440    0.57200    1.000
    C69      C        0.23200    0.90550    0.59390    1.000
    C70      C        0.20030    0.84970    0.60030    1.000
    H26      H        0.24760    0.82130    0.60400    1.000
    C71      C        0.34360    0.91700    0.59560    1.000
    C72      C        0.06060    0.93480    0.58510    1.000
    O39      O        0.69590    0.88400    0.70470    1.000
    C73      C        0.81980    0.97270    0.78250    1.000
    H27      H        0.85490    0.94450    0.74910    1.000
    C74      C        0.66340    0.01080    0.84510    1.000
    H28      H        0.59400    0.00880    0.84850    1.000
    O40      O        0.39910    0.87610    0.60490    1.000
    C75      C        0.02950    0.87920    0.59920    1.000
    H29      H        0.96200    0.87090    0.60710    1.000
    N9       N        0.97670    0.02220    0.83060    1.000
    N10      N        0.98310    0.97600    0.58110    1.000
    C76      C        0.71620    0.97240    0.78430    1.000
    C77      C        0.71310    0.05150    0.89990    1.000
    C78      C        0.87100    0.01650    0.83210    1.000
    C79      C        0.81770    0.05620    0.88650    1.000
    H30      H        0.85130    0.08650    0.91480    1.000
    C80      C        0.65590    0.92830    0.72610    1.000
    O41      O        0.07060    0.57530    0.49720    1.000
    O42      O        0.19640    0.63570    0.49330    1.000
    C81      C        0.15780    0.58920    0.46500    1.000
    O43      O        0.86930    0.46660    0.08410    1.000
    O44      O        0.64500    0.24050    0.10920    1.000
    O45      O        0.48390    0.26010    0.11820    1.000
    C82      C        0.57320    0.27500    0.11110    1.000
    C83      C        0.60150    0.33650    0.10110    1.000
    Tb6      Tb       0.05756    0.34350    0.11083    1.000
    O46      O        0.06570    0.43830    0.20630    1.000
    C84      C        0.66280    0.44770    0.08200    1.000
    H31      H        0.68370    0.48440    0.07200    1.000
    C85      C        0.73200    0.40550    0.09390    1.000
    C86      C        0.70030    0.34970    0.10030    1.000
    H32      H        0.74760    0.32130    0.10400    1.000
    C87      C        0.84360    0.41700    0.09560    1.000
    C88      C        0.56060    0.43480    0.08510    1.000
    O47      O        0.19590    0.38400    0.20470    1.000
    C89      C        0.31980    0.47270    0.28250    1.000
    H33      H        0.35490    0.44450    0.24910    1.000
    C90      C        0.16340    0.51080    0.34510    1.000
    H34      H        0.09400    0.50880    0.34850    1.000
    O48      O        0.89910    0.37610    0.10490    1.000
    C91      C        0.52950    0.37920    0.09920    1.000
    H35      H        0.46200    0.37090    0.10710    1.000
    N11      N        0.47670    0.52220    0.33060    1.000
    N12      N        0.48310    0.47600    0.08110    1.000
    C92      C        0.21620    0.47240    0.28430    1.000
    C93      C        0.21310    0.55150    0.39990    1.000
    C94      C        0.37100    0.51650    0.33210    1.000
    C95      C        0.31770    0.55620    0.38650    1.000
    H36      H        0.35130    0.58650    0.41480    1.000
    C96      C        0.15590    0.42830    0.22610    1.000
    O49      O        0.42940    0.92470    0.99720    1.000
    O50      O        0.30360    0.86430    0.99330    1.000
    C97      C        0.34220    0.91080    0.96500    1.000
    O51      O        0.63070    0.03340    0.58410    1.000
    O52      O        0.85500    0.25950    0.60920    1.000
    O53      O        0.01610    0.23990    0.61820    1.000
    C98      C        0.92680    0.22500    0.61110    1.000
    C99      C        0.89850    0.16350    0.60110    1.000
    Tb7      Tb       0.44244    0.15650    0.61083    1.000
    O54      O        0.43430    0.06170    0.70630    1.000
    C100     C        0.83720    0.05230    0.58200    1.000
    H37      H        0.81630    0.01560    0.57200    1.000
    C101     C        0.76800    0.09450    0.59390    1.000
    C102     C        0.79970    0.15030    0.60030    1.000
    H38      H        0.75240    0.17870    0.60400    1.000
    C103     C        0.65640    0.08300    0.59560    1.000
    C104     C        0.93940    0.06520    0.58510    1.000
    O55      O        0.30410    0.11600    0.70470    1.000
    C105     C        0.18020    0.02730    0.78250    1.000
    H39      H        0.14510    0.05550    0.74910    1.000
    C106     C        0.33660    0.98920    0.84510    1.000
    H40      H        0.40600    0.99120    0.84850    1.000
    O56      O        0.60090    0.12390    0.60490    1.000
    C107     C        0.97050    0.12080    0.59920    1.000
    H41      H        0.03800    0.12910    0.60710    1.000
    N13      N        0.02330    0.97780    0.83060    1.000
    N14      N        0.01690    0.02400    0.58110    1.000
    C108     C        0.28380    0.02760    0.78430    1.000
    C109     C        0.28690    0.94850    0.89990    1.000
    C110     C        0.12900    0.98350    0.83210    1.000
    C111     C        0.18230    0.94380    0.88650    1.000
    H42      H        0.14870    0.91350    0.91480    1.000
    C112     C        0.34410    0.07170    0.72610    1.000
    O57      O        0.92940    0.42470    0.49720    1.000
    O58      O        0.80360    0.36430    0.49330    1.000
    C113     C        0.84220    0.41080    0.46500    1.000
    O59      O        0.13070    0.53340    0.08410    1.000
    O60      O        0.35500    0.75950    0.10920    1.000
    O61      O        0.51610    0.73990    0.11820    1.000
    C114     C        0.42680    0.72500    0.11110    1.000
    C115     C        0.39850    0.66350    0.10110    1.000
    Tb8      Tb       0.94244    0.65650    0.11083    1.000
    O62      O        0.93430    0.56170    0.20630    1.000
    C116     C        0.33720    0.55230    0.08200    1.000
    H43      H        0.31630    0.51560    0.07200    1.000
    C117     C        0.26800    0.59450    0.09390    1.000
    C118     C        0.29970    0.65030    0.10030    1.000
    H44      H        0.25240    0.67870    0.10400    1.000
    C119     C        0.15640    0.58300    0.09560    1.000
    C120     C        0.43940    0.56520    0.08510    1.000
    O63      O        0.80410    0.61600    0.20470    1.000
    C121     C        0.68020    0.52730    0.28250    1.000
    H45      H        0.64510    0.55550    0.24910    1.000
    C122     C        0.83660    0.48920    0.34510    1.000
    H46      H        0.90600    0.49120    0.34850    1.000
    O64      O        0.10090    0.62390    0.10490    1.000
    C123     C        0.47050    0.62080    0.09920    1.000
    H47      H        0.53800    0.62910    0.10710    1.000
    N15      N        0.52330    0.47780    0.33060    1.000
    N16      N        0.51690    0.52400    0.08110    1.000
    C124     C        0.78380    0.52760    0.28430    1.000
    C125     C        0.78690    0.44850    0.39990    1.000
    C126     C        0.62900    0.48350    0.33210    1.000
    C127     C        0.68230    0.44380    0.38650    1.000
    H48      H        0.64870    0.41350    0.41480    1.000
    C128     C        0.84410    0.57170    0.22610    1.000
    Zn1      Zn       0.00000    0.50000    0.60940    1.000
    Zn2      Zn       0.50000    0.00000    0.10940    1.000
    Zn3      Zn       0.50000    0.00000    0.60940    1.000
    Zn4      Zn       0.00000    0.50000    0.10940    1.000
