# CIF file generated by openbabel 3.1.0, see https://openbabel.org
data_I
_chemical_name_common 'image0'
_cell_length_a 26.846
_cell_length_b 27.178
_cell_length_c 9.766
_cell_angle_alpha 90
_cell_angle_beta 90
_cell_angle_gamma 90
_space_group_name_H-M_alt 'P 1'
_space_group_name_Hall 'P 1'
loop_
    _symmetry_equiv_pos_as_xyz
    x,y,z
loop_
    _atom_site_label
    _atom_site_type_symbol
    _atom_site_fract_x
    _atom_site_fract_y
    _atom_site_fract_z
    _atom_site_occupancy
    O1       O        0.90100    0.31090    0.96990    1.000
    C1       C        0.92830    0.33120    0.87600    1.000
    O2       O        0.96140    0.31057    0.81580    1.000
    C2       C        0.91540    0.38310    0.83540    1.000
    C3       C        0.87720    0.40850    0.89850    1.000
    C4       C        0.94400    0.40550    0.73700    1.000
    H1       H        0.85820    0.39290    0.96800    1.000
    C5       C        0.86710    0.45430    0.86300    1.000
    C6       C        0.93530    0.45330    0.69660    1.000
    H2       H        0.97040    0.38760    0.69570    1.000
    C7       C        0.89750    0.47820    0.75630    1.000
    C8       C        0.82420    0.47670    0.93990    1.000
    C9       C        0.96750    0.47630    0.59470    1.000
    C10      C        0.22320    0.29490    0.28220    1.000
    H3       H        0.89050    0.51110    0.72940    1.000
    O3       O        0.80640    0.51420    0.90710    1.000
    O4       O        0.80530    0.45970    0.03700    1.000
    C11      C        0.01550    0.49270    0.63430    1.000
    C12      C        0.95240    0.48550    0.46000    1.000
    C13      C        0.19750    0.33920    0.27870    1.000
    C14      C        0.03270    0.48570    0.77430    1.000
    C15      C        0.90460    0.46830    0.41160    1.000
    H4       H        0.16220    0.34010    0.28250    1.000
    C16      C        0.22470    0.38130    0.27000    1.000
    H5       H        0.01140    0.47090    0.84010    1.000
    C17      C        0.07940    0.50040    0.81090    1.000
    H6       H        0.88310    0.45090    0.47180    1.000
    C18      C        0.89060    0.47670    0.28260    1.000
    H7       H        0.20770    0.41190    0.26310    1.000
    H8       H        0.09110    0.49480    0.90130    1.000
    H9       H        0.85830    0.46630    0.25450    1.000
    O5       O        0.83200    0.53890    0.86210    1.000
    O6       O        0.80780    0.48140    0.97930    1.000
    C19      C        0.83530    0.49800    0.89800    1.000
    O7       O        0.59900    0.18910    0.96990    1.000
    C20      C        0.57170    0.16880    0.87600    1.000
    O8       O        0.53860    0.18943    0.81580    1.000
    C21      C        0.58460    0.11690    0.83540    1.000
    C22      C        0.62280    0.09150    0.89850    1.000
    C23      C        0.55600    0.09450    0.73700    1.000
    H10      H        0.64180    0.10710    0.96800    1.000
    C24      C        0.63290    0.04570    0.86300    1.000
    C25      C        0.56470    0.04670    0.69660    1.000
    H11      H        0.52960    0.11240    0.69570    1.000
    C26      C        0.60250    0.02180    0.75630    1.000
    C27      C        0.67580    0.02330    0.93990    1.000
    C28      C        0.53250    0.02370    0.59470    1.000
    C29      C        0.27680    0.20510    0.28220    1.000
    H12      H        0.60950    0.98890    0.72940    1.000
    O9       O        0.69360    0.98580    0.90710    1.000
    O10      O        0.69470    0.04030    0.03700    1.000
    C30      C        0.48450    0.00730    0.63430    1.000
    C31      C        0.54760    0.01450    0.46000    1.000
    C32      C        0.30250    0.16080    0.27870    1.000
    C33      C        0.46730    0.01430    0.77430    1.000
    C34      C        0.59540    0.03170    0.41160    1.000
    H13      H        0.33780    0.15990    0.28250    1.000
    C35      C        0.27530    0.11870    0.27000    1.000
    H14      H        0.48860    0.02910    0.84010    1.000
    C36      C        0.42060    0.99960    0.81090    1.000
    H15      H        0.61690    0.04910    0.47180    1.000
    C37      C        0.60940    0.02330    0.28260    1.000
    H16      H        0.29230    0.08810    0.26310    1.000
    H17      H        0.40890    0.00520    0.90130    1.000
    H18      H        0.64170    0.03370    0.25450    1.000
    O11      O        0.66800    0.96110    0.86210    1.000
    O12      O        0.69220    0.01860    0.97930    1.000
    C38      C        0.66470    0.00200    0.89800    1.000
    O13      O        0.09900    0.81090    0.03010    1.000
    C39      C        0.07170    0.83120    0.12400    1.000
    O14      O        0.03860    0.81057    0.18420    1.000
    C40      C        0.08460    0.88310    0.16460    1.000
    C41      C        0.12280    0.90850    0.10150    1.000
    C42      C        0.05600    0.90550    0.26300    1.000
    H19      H        0.14180    0.89290    0.03200    1.000
    C43      C        0.13290    0.95430    0.13700    1.000
    C44      C        0.06470    0.95330    0.30340    1.000
    H20      H        0.02960    0.88760    0.30430    1.000
    C45      C        0.10250    0.97820    0.24370    1.000
    C46      C        0.17580    0.97670    0.06010    1.000
    C47      C        0.03250    0.97630    0.40530    1.000
    C48      C        0.77680    0.79490    0.71780    1.000
    H21      H        0.10950    0.01110    0.27060    1.000
    O15      O        0.19360    0.01420    0.09290    1.000
    O16      O        0.19470    0.95970    0.96300    1.000
    C49      C        0.98450    0.99270    0.36570    1.000
    C50      C        0.04760    0.98550    0.54000    1.000
    C51      C        0.80250    0.83920    0.72130    1.000
    C52      C        0.96730    0.98570    0.22570    1.000
    C53      C        0.09540    0.96830    0.58840    1.000
    H22      H        0.83780    0.84010    0.71750    1.000
    C54      C        0.77530    0.88130    0.73000    1.000
    H23      H        0.98860    0.97090    0.15990    1.000
    C55      C        0.92060    0.00040    0.18910    1.000
    H24      H        0.11690    0.95090    0.52820    1.000
    C56      C        0.10940    0.97670    0.71740    1.000
    H25      H        0.79230    0.91190    0.73690    1.000
    H26      H        0.90890    0.99480    0.09870    1.000
    H27      H        0.14170    0.96630    0.74550    1.000
    O17      O        0.16800    0.03890    0.13790    1.000
    O18      O        0.19220    0.98140    0.02070    1.000
    C57      C        0.16470    0.99800    0.10200    1.000
    O19      O        0.40100    0.68910    0.03010    1.000
    C58      C        0.42830    0.66880    0.12400    1.000
    O20      O        0.46140    0.68943    0.18420    1.000
    C59      C        0.41540    0.61690    0.16460    1.000
    C60      C        0.37720    0.59150    0.10150    1.000
    C61      C        0.44400    0.59450    0.26300    1.000
    H28      H        0.35820    0.60710    0.03200    1.000
    C62      C        0.36710    0.54570    0.13700    1.000
    C63      C        0.43530    0.54670    0.30340    1.000
    H29      H        0.47040    0.61240    0.30430    1.000
    C64      C        0.39750    0.52180    0.24370    1.000
    C65      C        0.32420    0.52330    0.06010    1.000
    C66      C        0.46750    0.52370    0.40530    1.000
    C67      C        0.72320    0.70510    0.71780    1.000
    H30      H        0.39050    0.48890    0.27060    1.000
    O21      O        0.30640    0.48580    0.09290    1.000
    O22      O        0.30530    0.54030    0.96300    1.000
    C68      C        0.51550    0.50730    0.36570    1.000
    C69      C        0.45240    0.51450    0.54000    1.000
    C70      C        0.69750    0.66080    0.72130    1.000
    C71      C        0.53270    0.51430    0.22570    1.000
    C72      C        0.40460    0.53170    0.58840    1.000
    H31      H        0.66220    0.65990    0.71750    1.000
    C73      C        0.72470    0.61870    0.73000    1.000
    H32      H        0.51140    0.52910    0.15990    1.000
    C74      C        0.57940    0.49960    0.18910    1.000
    H33      H        0.38310    0.54910    0.52820    1.000
    C75      C        0.39060    0.52330    0.71740    1.000
    H34      H        0.70770    0.58810    0.73690    1.000
    H35      H        0.59110    0.50520    0.09870    1.000
    H36      H        0.35830    0.53370    0.74550    1.000
    O23      O        0.33200    0.46110    0.13790    1.000
    O24      O        0.30780    0.51860    0.02070    1.000
    C76      C        0.33530    0.50200    0.10200    1.000
    O25      O        0.09900    0.68910    0.03010    1.000
    C77      C        0.07170    0.66880    0.12400    1.000
    O26      O        0.03860    0.68943    0.18420    1.000
    C78      C        0.08460    0.61690    0.16460    1.000
    C79      C        0.12280    0.59150    0.10150    1.000
    C80      C        0.05600    0.59450    0.26300    1.000
    H37      H        0.14180    0.60710    0.03200    1.000
    C81      C        0.13290    0.54570    0.13700    1.000
    C82      C        0.06470    0.54670    0.30340    1.000
    H38      H        0.02960    0.61240    0.30430    1.000
    C83      C        0.10250    0.52180    0.24370    1.000
    C84      C        0.17580    0.52330    0.06010    1.000
    C85      C        0.03250    0.52370    0.40530    1.000
    C86      C        0.77680    0.70510    0.71780    1.000
    H39      H        0.10950    0.48890    0.27060    1.000
    O27      O        0.19360    0.48580    0.09290    1.000
    O28      O        0.19470    0.54030    0.96300    1.000
    C87      C        0.98450    0.50730    0.36570    1.000
    C88      C        0.04760    0.51450    0.54000    1.000
    C89      C        0.80250    0.66080    0.72130    1.000
    C90      C        0.96730    0.51430    0.22570    1.000
    C91      C        0.09540    0.53170    0.58840    1.000
    H40      H        0.83780    0.65990    0.71750    1.000
    C92      C        0.77530    0.61870    0.73000    1.000
    H41      H        0.98860    0.52910    0.15990    1.000
    C93      C        0.92060    0.49960    0.18910    1.000
    H42      H        0.11690    0.54910    0.52820    1.000
    C94      C        0.10940    0.52330    0.71740    1.000
    H43      H        0.79230    0.58810    0.73690    1.000
    H44      H        0.90890    0.50520    0.09870    1.000
    H45      H        0.14170    0.53370    0.74550    1.000
    O29      O        0.16800    0.46110    0.13790    1.000
    O30      O        0.19220    0.51860    0.02070    1.000
    C95      C        0.16470    0.50200    0.10200    1.000
    O31      O        0.40100    0.81090    0.03010    1.000
    C96      C        0.42830    0.83120    0.12400    1.000
    O32      O        0.46140    0.81057    0.18420    1.000
    C97      C        0.41540    0.88310    0.16460    1.000
    C98      C        0.37720    0.90850    0.10150    1.000
    C99      C        0.44400    0.90550    0.26300    1.000
    H46      H        0.35820    0.89290    0.03200    1.000
    C100     C        0.36710    0.95430    0.13700    1.000
    C101     C        0.43530    0.95330    0.30340    1.000
    H47      H        0.47040    0.88760    0.30430    1.000
    C102     C        0.39750    0.97820    0.24370    1.000
    C103     C        0.32420    0.97670    0.06010    1.000
    C104     C        0.46750    0.97630    0.40530    1.000
    C105     C        0.72320    0.79490    0.71780    1.000
    H48      H        0.39050    0.01110    0.27060    1.000
    O33      O        0.30640    0.01420    0.09290    1.000
    O34      O        0.30530    0.95970    0.96300    1.000
    C106     C        0.51550    0.99270    0.36570    1.000
    C107     C        0.45240    0.98550    0.54000    1.000
    C108     C        0.69750    0.83920    0.72130    1.000
    C109     C        0.53270    0.98570    0.22570    1.000
    C110     C        0.40460    0.96830    0.58840    1.000
    H49      H        0.66220    0.84010    0.71750    1.000
    C111     C        0.72470    0.88130    0.73000    1.000
    H50      H        0.51140    0.97090    0.15990    1.000
    C112     C        0.57940    0.00040    0.18910    1.000
    H51      H        0.38310    0.95090    0.52820    1.000
    C113     C        0.39060    0.97670    0.71740    1.000
    H52      H        0.70770    0.91190    0.73690    1.000
    H53      H        0.59110    0.99480    0.09870    1.000
    H54      H        0.35830    0.96630    0.74550    1.000
    O35      O        0.33200    0.03890    0.13790    1.000
    O36      O        0.30780    0.98140    0.02070    1.000
    C114     C        0.33530    0.99800    0.10200    1.000
    O37      O        0.90100    0.18910    0.96990    1.000
    C115     C        0.92830    0.16880    0.87600    1.000
    O38      O        0.96140    0.18943    0.81580    1.000
    C116     C        0.91540    0.11690    0.83540    1.000
    C117     C        0.87720    0.09150    0.89850    1.000
    C118     C        0.94400    0.09450    0.73700    1.000
    H55      H        0.85820    0.10710    0.96800    1.000
    C119     C        0.86710    0.04570    0.86300    1.000
    C120     C        0.93530    0.04670    0.69660    1.000
    H56      H        0.97040    0.11240    0.69570    1.000
    C121     C        0.89750    0.02180    0.75630    1.000
    C122     C        0.82420    0.02330    0.93990    1.000
    C123     C        0.96750    0.02370    0.59470    1.000
    C124     C        0.22320    0.20510    0.28220    1.000
    H57      H        0.89050    0.98890    0.72940    1.000
    O39      O        0.80640    0.98580    0.90710    1.000
    O40      O        0.80530    0.04030    0.03700    1.000
    C125     C        0.01550    0.00730    0.63430    1.000
    C126     C        0.95240    0.01450    0.46000    1.000
    C127     C        0.19750    0.16080    0.27870    1.000
    C128     C        0.03270    0.01430    0.77430    1.000
    C129     C        0.90460    0.03170    0.41160    1.000
    H58      H        0.16220    0.15990    0.28250    1.000
    C130     C        0.22470    0.11870    0.27000    1.000
    H59      H        0.01140    0.02910    0.84010    1.000
    C131     C        0.07940    0.99960    0.81090    1.000
    H60      H        0.88310    0.04910    0.47180    1.000
    C132     C        0.89060    0.02330    0.28260    1.000
    H61      H        0.20770    0.08810    0.26310    1.000
    H62      H        0.09110    0.00520    0.90130    1.000
    H63      H        0.85830    0.03370    0.25450    1.000
    O41      O        0.83200    0.96110    0.86210    1.000
    O42      O        0.80780    0.01860    0.97930    1.000
    C133     C        0.83530    0.00200    0.89800    1.000
    O43      O        0.59900    0.31090    0.96990    1.000
    C134     C        0.57170    0.33120    0.87600    1.000
    O44      O        0.53860    0.31057    0.81580    1.000
    C135     C        0.58460    0.38310    0.83540    1.000
    C136     C        0.62280    0.40850    0.89850    1.000
    C137     C        0.55600    0.40550    0.73700    1.000
    H64      H        0.64180    0.39290    0.96800    1.000
    C138     C        0.63290    0.45430    0.86300    1.000
    C139     C        0.56470    0.45330    0.69660    1.000
    H65      H        0.52960    0.38760    0.69570    1.000
    C140     C        0.60250    0.47820    0.75630    1.000
    C141     C        0.67580    0.47670    0.93990    1.000
    C142     C        0.53250    0.47630    0.59470    1.000
    C143     C        0.27680    0.29490    0.28220    1.000
    H66      H        0.60950    0.51110    0.72940    1.000
    O45      O        0.69360    0.51420    0.90710    1.000
    O46      O        0.69470    0.45970    0.03700    1.000
    C144     C        0.48450    0.49270    0.63430    1.000
    C145     C        0.54760    0.48550    0.46000    1.000
    C146     C        0.30250    0.33920    0.27870    1.000
    C147     C        0.46730    0.48570    0.77430    1.000
    C148     C        0.59540    0.46830    0.41160    1.000
    H67      H        0.33780    0.34010    0.28250    1.000
    C149     C        0.27530    0.38130    0.27000    1.000
    H68      H        0.48860    0.47090    0.84010    1.000
    C150     C        0.42060    0.50040    0.81090    1.000
    H69      H        0.61690    0.45090    0.47180    1.000
    C151     C        0.60940    0.47670    0.28260    1.000
    H70      H        0.29230    0.41190    0.26310    1.000
    H71      H        0.40890    0.49480    0.90130    1.000
    H72      H        0.64170    0.46630    0.25450    1.000
    O47      O        0.66800    0.53890    0.86210    1.000
    O48      O        0.69220    0.48140    0.97930    1.000
    C152     C        0.66470    0.49800    0.89800    1.000
    Zn1      Zn       0.90436    0.25000    0.05862    1.000
    O49      O        0.97860    0.25000    0.11770    1.000
    C153     C        0.02330    0.25000    0.09470    1.000
    O50      O        0.04220    0.25000    0.97720    1.000
    C154     C        0.05830    0.25000    0.20880    1.000
    Zn2      Zn       0.99961    0.25000    0.81392    1.000
    C155     C        0.04080    0.25000    0.34620    1.000
    C156     C        0.10990    0.25000    0.19050    1.000
    O51      O        0.00600    0.25000    0.61100    1.000
    O52      O        0.07470    0.25000    0.69020    1.000
    H73      H        0.00590    0.25000    0.36250    1.000
    C157     C        0.07210    0.25000    0.45380    1.000
    C158     C        0.14270    0.25000    0.29680    1.000
    H74      H        0.12270    0.25000    0.09980    1.000
    C159     C        0.12080    0.25000    0.43110    1.000
    C160     C        0.05000    0.25000    0.59620    1.000
    C161     C        0.19680    0.25000    0.28290    1.000
    H75      H        0.14240    0.25000    0.50810    1.000
    Zn3      Zn       0.59564    0.25000    0.05862    1.000
    O53      O        0.52140    0.25000    0.11770    1.000
    C162     C        0.47670    0.25000    0.09470    1.000
    O54      O        0.45780    0.25000    0.97720    1.000
    C163     C        0.44170    0.25000    0.20880    1.000
    Zn4      Zn       0.50039    0.25000    0.81392    1.000
    C164     C        0.45920    0.25000    0.34620    1.000
    C165     C        0.39010    0.25000    0.19050    1.000
    O55      O        0.49400    0.25000    0.61100    1.000
    O56      O        0.42530    0.25000    0.69020    1.000
    H76      H        0.49410    0.25000    0.36250    1.000
    C166     C        0.42790    0.25000    0.45380    1.000
    C167     C        0.35730    0.25000    0.29680    1.000
    H77      H        0.37730    0.25000    0.09980    1.000
    C168     C        0.37920    0.25000    0.43110    1.000
    C169     C        0.45000    0.25000    0.59620    1.000
    C170     C        0.30320    0.25000    0.28290    1.000
    H78      H        0.35760    0.25000    0.50810    1.000
    Zn5      Zn       0.09564    0.75000    0.94138    1.000
    O57      O        0.02140    0.75000    0.88230    1.000
    C171     C        0.97670    0.75000    0.90530    1.000
    O58      O        0.95780    0.75000    0.02280    1.000
    C172     C        0.94170    0.75000    0.79120    1.000
    Zn6      Zn       0.00039    0.75000    0.18608    1.000
    C173     C        0.95920    0.75000    0.65380    1.000
    C174     C        0.89010    0.75000    0.80950    1.000
    O59      O        0.99400    0.75000    0.38900    1.000
    O60      O        0.92530    0.75000    0.30980    1.000
    H79      H        0.99410    0.75000    0.63750    1.000
    C175     C        0.92790    0.75000    0.54620    1.000
    C176     C        0.85730    0.75000    0.70320    1.000
    H80      H        0.87730    0.75000    0.90020    1.000
    C177     C        0.87920    0.75000    0.56890    1.000
    C178     C        0.95000    0.75000    0.40380    1.000
    C179     C        0.80320    0.75000    0.71710    1.000
    H81      H        0.85760    0.75000    0.49190    1.000
    Zn7      Zn       0.40436    0.75000    0.94138    1.000
    O61      O        0.47860    0.75000    0.88230    1.000
    C180     C        0.52330    0.75000    0.90530    1.000
    O62      O        0.54220    0.75000    0.02280    1.000
    C181     C        0.55830    0.75000    0.79120    1.000
    Zn8      Zn       0.49961    0.75000    0.18608    1.000
    C182     C        0.54080    0.75000    0.65380    1.000
    C183     C        0.60990    0.75000    0.80950    1.000
    O63      O        0.50600    0.75000    0.38900    1.000
    O64      O        0.57470    0.75000    0.30980    1.000
    H82      H        0.50590    0.75000    0.63750    1.000
    C184     C        0.57210    0.75000    0.54620    1.000
    C185     C        0.64270    0.75000    0.70320    1.000
    H83      H        0.62270    0.75000    0.90020    1.000
    C186     C        0.62080    0.75000    0.56890    1.000
    C187     C        0.55000    0.75000    0.40380    1.000
    C188     C        0.69680    0.75000    0.71710    1.000
    H84      H        0.64240    0.75000    0.49190    1.000
    Zn9      Zn       0.75000    0.51170    0.09632    1.000
    Zn10     Zn       0.75000    0.98830    0.09632    1.000
    Zn11     Zn       0.25000    0.01170    0.90368    1.000
    Zn12     Zn       0.25000    0.48830    0.90368    1.000
