# CIF file generated by openbabel 3.1.0, see https://openbabel.org
data_I
_chemical_name_common 'ja500618z_si_002_clean'
_cell_length_a 8.5164
_cell_length_b 9.0562
_cell_length_c 11.9772
_cell_angle_alpha 90
_cell_angle_beta 90
_cell_angle_gamma 90
_space_group_name_H-M_alt 'P 1'
_space_group_name_Hall 'P 1'
loop_
    _symmetry_equiv_pos_as_xyz
    x,y,z
loop_
    _atom_site_label
    _atom_site_type_symbol
    _atom_site_fract_x
    _atom_site_fract_y
    _atom_site_fract_z
    _atom_site_occupancy
    Mn1      Mn       0.25186    0.25000    0.25000    1.000
    Mn2      Mn       0.75186    0.75000    0.25000    1.000
    Mn3      Mn       0.74814    0.75000    0.75000    1.000
    Mn4      Mn       0.24814    0.25000    0.75000    1.000
    H1       H        0.75000    0.70760    0.50000    1.000
    H2       H        0.75000    0.79240    0.00000    1.000
    H3       H        0.58350    0.43580    0.23230    1.000
    H4       H        0.25000    0.29240    0.50000    1.000
    H5       H        0.91650    0.06420    0.73230    1.000
    H6       H        0.08350    0.93580    0.26770    1.000
    H7       H        0.25000    0.20760    0.00000    1.000
    H8       H        0.08350    0.56420    0.23230    1.000
    H9       H        0.41650    0.93580    0.73230    1.000
    H10      H        0.58350    0.06420    0.26770    1.000
    H11      H        0.41650    0.56420    0.76770    1.000
    H12      H        0.91650    0.43580    0.76770    1.000
    C1       C        0.48014    0.51534    0.71657    1.000
    C2       C        0.51986    0.01534    0.21657    1.000
    C3       C        0.01986    0.98466    0.21657    1.000
    C4       C        0.75000    0.68970    0.00000    1.000
    C5       C        0.51986    0.48466    0.28343    1.000
    C6       C        0.25000    0.18970    0.50000    1.000
    C7       C        0.48014    0.98466    0.78343    1.000
    C8       C        0.25000    0.31030    0.00000    1.000
    C9       C        0.98014    0.48466    0.71657    1.000
    C10      C        0.75000    0.81030    0.50000    1.000
    C11      C        0.98014    0.01534    0.78343    1.000
    C12      C        0.01986    0.51534    0.28343    1.000
    O1       O        0.25645    0.12847    0.40750    1.000
    O2       O        0.90452    0.91610    0.17962    1.000
    O3       O        0.09548    0.08390    0.82038    1.000
    O4       O        0.40452    0.41610    0.32038    1.000
    O5       O        0.55730    0.61229    0.30883    1.000
    O6       O        0.44270    0.38771    0.69117    1.000
    O7       O        0.25645    0.37153    0.09250    1.000
    O8       O        0.94270    0.61229    0.69117    1.000
    O9       O        0.09548    0.41610    0.67962    1.000
    O10      O        0.74355    0.62847    0.90750    1.000
    O11      O        0.05730    0.11229    0.19117    1.000
    O12      O        0.59548    0.58390    0.67962    1.000
    O13      O        0.24355    0.12847    0.59250    1.000
    O14      O        0.24355    0.37153    0.90750    1.000
    O15      O        0.05730    0.38771    0.30883    1.000
    O16      O        0.94270    0.88771    0.80883    1.000
    O17      O        0.74355    0.87153    0.59250    1.000
    O18      O        0.90452    0.58390    0.32038    1.000
    O19      O        0.75645    0.62847    0.09250    1.000
    O20      O        0.40452    0.08390    0.17962    1.000
    O21      O        0.55730    0.88771    0.19117    1.000
    O22      O        0.59548    0.91610    0.82038    1.000
    O23      O        0.44270    0.11229    0.80883    1.000
    O24      O        0.75645    0.87153    0.40750    1.000
