# CIF file generated by openbabel 3.1.0, see https://openbabel.org
data_I
_chemical_name_common 'LOQLEJ_manual'
_cell_length_a 7.233
_cell_length_b 21.7582
_cell_length_c 21.7582
_cell_angle_alpha 60.0478
_cell_angle_beta 90
_cell_angle_gamma 90
_space_group_name_H-M_alt 'P 1'
_space_group_name_Hall 'P 1'
loop_
    _symmetry_equiv_pos_as_xyz
    x,y,z
loop_
    _atom_site_label
    _atom_site_type_symbol
    _atom_site_fract_x
    _atom_site_fract_y
    _atom_site_fract_z
    _atom_site_occupancy
    In1      In       0.00000    0.00000    0.50000    1.000
    In2      In       0.50000    0.00000    0.50000    1.000
    In3      In       0.50000    0.50000    0.00000    1.000
    In4      In       0.00000    0.50000    0.00000    1.000
    In5      In       0.00000    0.00000    0.00000    1.000
    In6      In       0.50000    0.00000    0.00000    1.000
    H7       H        0.44921    0.79512    0.67950    1.000
    H8       H        0.05024    0.96868    0.32256    1.000
    H9       H        0.05082    0.96904    0.20798    1.000
    H10      H        0.94921    0.20488    0.32050    1.000
    H11      H        0.55024    0.03132    0.67744    1.000
    H12      H        0.55082    0.03096    0.79202    1.000
    H13      H        0.05079    0.67950    0.79512    1.000
    H14      H        0.44976    0.32256    0.96868    1.000
    H15      H        0.44918    0.20798    0.96904    1.000
    H16      H        0.55079    0.32050    0.20488    1.000
    H17      H        0.94976    0.67744    0.03132    1.000
    H18      H        0.94918    0.79202    0.03096    1.000
    H19      H        0.55079    0.20488    0.32050    1.000
    H20      H        0.94976    0.03132    0.67744    1.000
    H21      H        0.94918    0.03096    0.79202    1.000
    H22      H        0.05079    0.79512    0.67950    1.000
    H23      H        0.44976    0.96868    0.32256    1.000
    H24      H        0.44918    0.96904    0.20798    1.000
    H25      H        0.94921    0.32050    0.20488    1.000
    H26      H        0.55024    0.67744    0.03132    1.000
    H27      H        0.55082    0.79202    0.03096    1.000
    H28      H        0.44921    0.67950    0.79512    1.000
    H29      H        0.05024    0.32256    0.96868    1.000
    H30      H        0.05082    0.20798    0.96904    1.000
    C31      C        0.58560    0.76793    0.70467    1.000
    C32      C        0.91390    0.96959    0.29583    1.000
    C33      C        0.91420    0.96910    0.23408    1.000
    C34      C        0.08560    0.23207    0.29533    1.000
    C35      C        0.41390    0.03041    0.70417    1.000
    C36      C        0.41420    0.03090    0.76592    1.000
    C37      C        0.91440    0.70467    0.76793    1.000
    C38      C        0.58610    0.29583    0.96959    1.000
    C39      C        0.58580    0.23408    0.96910    1.000
    C40      C        0.41440    0.29533    0.23207    1.000
    C41      C        0.08610    0.70417    0.03041    1.000
    C42      C        0.08580    0.76592    0.03090    1.000
    C43      C        0.41440    0.23207    0.29533    1.000
    C44      C        0.08610    0.03041    0.70417    1.000
    C45      C        0.08580    0.03090    0.76592    1.000
    C46      C        0.91440    0.76793    0.70467    1.000
    C47      C        0.58610    0.96959    0.29583    1.000
    C48      C        0.58580    0.96910    0.23408    1.000
    C49      C        0.08560    0.29533    0.23207    1.000
    C50      C        0.41390    0.70417    0.03041    1.000
    C51      C        0.41420    0.76592    0.03090    1.000
    C52      C        0.58560    0.70467    0.76793    1.000
    C53      C        0.91390    0.29583    0.96959    1.000
    C54      C        0.91420    0.23408    0.96910    1.000
    C55      C        0.75000    0.87070    0.60596    1.000
    C56      C        0.75000    0.79786    0.67230    1.000
    C57      C        0.75000    0.97748    0.39386    1.000
    C58      C        0.75000    0.97119    0.32755    1.000
    C59      C        0.75000    0.96867    0.20249    1.000
    C60      C        0.75000    0.97075    0.13125    1.000
    C61      C        0.25000    0.12930    0.39404    1.000
    C62      C        0.25000    0.20214    0.32770    1.000
    C63      C        0.25000    0.02252    0.60614    1.000
    C64      C        0.25000    0.02881    0.67245    1.000
    C65      C        0.25000    0.03133    0.79751    1.000
    C66      C        0.25000    0.02925    0.86875    1.000
    C67      C        0.75000    0.60596    0.87070    1.000
    C68      C        0.75000    0.67230    0.79786    1.000
    C69      C        0.75000    0.39386    0.97748    1.000
    C70      C        0.75000    0.32755    0.97119    1.000
    C71      C        0.75000    0.20249    0.96867    1.000
    C72      C        0.75000    0.13125    0.97075    1.000
    C73      C        0.25000    0.39404    0.12930    1.000
    C74      C        0.25000    0.32770    0.20214    1.000
    C75      C        0.25000    0.60614    0.02252    1.000
    C76      C        0.25000    0.67245    0.02881    1.000
    C77      C        0.25000    0.79751    0.03133    1.000
    C78      C        0.25000    0.86875    0.02925    1.000
    O79      O        0.90435    0.89714    0.58072    1.000
    O80      O        0.90194    0.97733    0.42005    1.000
    O81      O        0.90353    0.97182    0.10416    1.000
    O82      O        0.40435    0.10286    0.41928    1.000
    O83      O        0.40194    0.02267    0.57995    1.000
    O84      O        0.40353    0.02818    0.89584    1.000
    O85      O        0.59565    0.58072    0.89714    1.000
    O86      O        0.59806    0.42005    0.97733    1.000
    O87      O        0.59647    0.10416    0.97182    1.000
    O88      O        0.09565    0.41928    0.10286    1.000
    O89      O        0.09806    0.57995    0.02267    1.000
    O90      O        0.09647    0.89584    0.02818    1.000
    O91      O        0.09565    0.10286    0.41928    1.000
    O92      O        0.09806    0.02267    0.57995    1.000
    O93      O        0.09647    0.02818    0.89584    1.000
    O94      O        0.59565    0.89714    0.58072    1.000
    O95      O        0.59806    0.97733    0.42005    1.000
    O96      O        0.59647    0.97182    0.10416    1.000
    O97      O        0.40435    0.41928    0.10286    1.000
    O98      O        0.40194    0.57995    0.02267    1.000
    O99      O        0.40353    0.89584    0.02818    1.000
    O100     O        0.90435    0.58072    0.89714    1.000
    O101     O        0.90194    0.42005    0.97733    1.000
    O102     O        0.90353    0.10416    0.97182    1.000
    O103     O        0.75000    0.04861    0.50117    1.000
    O104     O        0.25000    0.95139    0.49883    1.000
    O105     O        0.75000    0.50117    0.04861    1.000
    O106     O        0.25000    0.49883    0.95139    1.000
    O107     O        0.75000    0.97584    0.97584    1.000
    O108     O        0.25000    0.02416    0.02416    1.000
    H109     H        0.75017    0.45650    0.09481    1.000
    H110     H        0.24997    0.90520    0.54350    1.000
    H111     H        0.75003    0.09481    0.45651    1.000
    H112     H        0.24999    0.45304    0.95201    1.000
    H113     H        0.25000    0.07641    0.00248    1.000
    H114     H        0.74995    0.99789    0.92356    1.000
