# CIF file generated by openbabel 3.1.0, see https://openbabel.org
data_I
_chemical_name_common 'image0'
_cell_length_a 23.984
_cell_length_b 13.122
_cell_length_c 11.917
_cell_angle_alpha 90
_cell_angle_beta 90
_cell_angle_gamma 90
_space_group_name_H-M_alt 'P 1'
_space_group_name_Hall 'P 1'
loop_
    _symmetry_equiv_pos_as_xyz
    x,y,z
loop_
    _atom_site_label
    _atom_site_type_symbol
    _atom_site_fract_x
    _atom_site_fract_y
    _atom_site_fract_z
    _atom_site_occupancy
    O1       O        0.48075    0.68170    0.88330    1.000
    O2       O        0.50303    0.58480    0.73950    1.000
    N1       N        0.32669    0.20010    0.98830    1.000
    N2       N        0.31981    0.12260    0.06110    1.000
    N3       N        0.35518    0.12860    0.14400    1.000
    N4       N        0.38740    0.21080    0.12600    1.000
    C1       C        0.36892    0.25370    0.03230    1.000
    C2       C        0.39293    0.34540    0.98010    1.000
    C3       C        0.39911    0.43530    0.03930    1.000
    H1       H        0.38620    0.43990    0.11270    1.000
    C4       C        0.42472    0.51910    0.98890    1.000
    H2       H        0.42810    0.57990    0.02860    1.000
    C5       C        0.44506    0.51280    0.88100    1.000
    C6       C        0.43740    0.42390    0.82140    1.000
    H3       H        0.44930    0.41990    0.74720    1.000
    C7       C        0.41210    0.34020    0.87140    1.000
    H4       H        0.40810    0.28000    0.83100    1.000
    C8       C        0.47821    0.59890    0.83060    1.000
    C9       C        0.24483    0.08640    0.31030    1.000
    H5       H        0.24190    0.14740    0.27090    1.000
    C10      C        0.24362    0.09000    0.42630    1.000
    H6       H        0.23860    0.15180    0.46310    1.000
    C11      C        0.26570    0.08520    0.67380    1.000
    H7       H        0.27660    0.14440    0.63700    1.000
    C12      C        0.26520    0.08220    0.78940    1.000
    H8       H        0.27590    0.14040    0.82830    1.000
    O3       O        0.01925    0.31830    0.88330    1.000
    O4       O        0.99697    0.41520    0.73950    1.000
    N5       N        0.17331    0.79990    0.98830    1.000
    N6       N        0.18019    0.87740    0.06110    1.000
    N7       N        0.14482    0.87140    0.14400    1.000
    N8       N        0.11260    0.78920    0.12600    1.000
    C13      C        0.13108    0.74630    0.03230    1.000
    C14      C        0.10707    0.65460    0.98010    1.000
    C15      C        0.10089    0.56470    0.03930    1.000
    H9       H        0.11380    0.56010    0.11270    1.000
    C16      C        0.07528    0.48090    0.98890    1.000
    H10      H        0.07190    0.42010    0.02860    1.000
    C17      C        0.05494    0.48720    0.88100    1.000
    C18      C        0.06260    0.57610    0.82140    1.000
    H11      H        0.05070    0.58010    0.74720    1.000
    C19      C        0.08790    0.65980    0.87140    1.000
    H12      H        0.09190    0.72000    0.83100    1.000
    C20      C        0.02179    0.40110    0.83060    1.000
    C21      C        0.25517    0.91360    0.31030    1.000
    H13      H        0.25810    0.85260    0.27090    1.000
    C22      C        0.25638    0.91000    0.42630    1.000
    H14      H        0.26140    0.84820    0.46310    1.000
    C23      C        0.23430    0.91480    0.67380    1.000
    H15      H        0.22340    0.85560    0.63700    1.000
    C24      C        0.23480    0.91780    0.78940    1.000
    H16      H        0.22410    0.85960    0.82830    1.000
    O5       O        0.01925    0.18170    0.61670    1.000
    O6       O        0.99697    0.08480    0.76050    1.000
    N9       N        0.17331    0.70010    0.51170    1.000
    N10      N        0.18019    0.62260    0.43890    1.000
    N11      N        0.14482    0.62860    0.35600    1.000
    N12      N        0.11260    0.71080    0.37400    1.000
    C25      C        0.13108    0.75370    0.46770    1.000
    C26      C        0.10707    0.84540    0.51990    1.000
    C27      C        0.10089    0.93530    0.46070    1.000
    H17      H        0.11380    0.93990    0.38730    1.000
    C28      C        0.07528    0.01910    0.51110    1.000
    H18      H        0.07190    0.07990    0.47140    1.000
    C29      C        0.05494    0.01280    0.61900    1.000
    C30      C        0.06260    0.92390    0.67860    1.000
    H19      H        0.05070    0.91990    0.75280    1.000
    C31      C        0.08790    0.84020    0.62860    1.000
    H20      H        0.09190    0.78000    0.66900    1.000
    C32      C        0.02179    0.09890    0.66940    1.000
    C33      C        0.25517    0.58640    0.18970    1.000
    H21      H        0.25810    0.64740    0.22910    1.000
    C34      C        0.25638    0.59000    0.07370    1.000
    H22      H        0.26140    0.65180    0.03690    1.000
    C35      C        0.23430    0.58520    0.82620    1.000
    H23      H        0.22340    0.64440    0.86300    1.000
    C36      C        0.23480    0.58220    0.71060    1.000
    H24      H        0.22410    0.64040    0.67170    1.000
    O7       O        0.48075    0.81830    0.61670    1.000
    O8       O        0.50303    0.91520    0.76050    1.000
    N13      N        0.32669    0.29990    0.51170    1.000
    N14      N        0.31981    0.37740    0.43890    1.000
    N15      N        0.35518    0.37140    0.35600    1.000
    N16      N        0.38740    0.28920    0.37400    1.000
    C37      C        0.36892    0.24630    0.46770    1.000
    C38      C        0.39293    0.15460    0.51990    1.000
    C39      C        0.39911    0.06470    0.46070    1.000
    H25      H        0.38620    0.06010    0.38730    1.000
    C40      C        0.42472    0.98090    0.51110    1.000
    H26      H        0.42810    0.92010    0.47140    1.000
    C41      C        0.44506    0.98720    0.61900    1.000
    C42      C        0.43740    0.07610    0.67860    1.000
    H27      H        0.44930    0.08010    0.75280    1.000
    C43      C        0.41210    0.15980    0.62860    1.000
    H28      H        0.40810    0.22000    0.66900    1.000
    C44      C        0.47821    0.90110    0.66940    1.000
    C45      C        0.24483    0.41360    0.18970    1.000
    H29      H        0.24190    0.35260    0.22910    1.000
    C46      C        0.24362    0.41000    0.07370    1.000
    H30      H        0.23860    0.34820    0.03690    1.000
    C47      C        0.26570    0.41480    0.82620    1.000
    H31      H        0.27660    0.35560    0.86300    1.000
    C48      C        0.26520    0.41780    0.71060    1.000
    H32      H        0.27590    0.35960    0.67170    1.000
    O9       O        0.51925    0.31830    0.11670    1.000
    O10      O        0.49697    0.41520    0.26050    1.000
    N17      N        0.67331    0.79990    0.01170    1.000
    N18      N        0.68019    0.87740    0.93890    1.000
    N19      N        0.64482    0.87140    0.85600    1.000
    N20      N        0.61260    0.78920    0.87400    1.000
    C49      C        0.63108    0.74630    0.96770    1.000
    C50      C        0.60707    0.65460    0.01990    1.000
    C51      C        0.60089    0.56470    0.96070    1.000
    H33      H        0.61380    0.56010    0.88730    1.000
    C52      C        0.57528    0.48090    0.01110    1.000
    H34      H        0.57190    0.42010    0.97140    1.000
    C53      C        0.55494    0.48720    0.11900    1.000
    C54      C        0.56260    0.57610    0.17860    1.000
    H35      H        0.55070    0.58010    0.25280    1.000
    C55      C        0.58790    0.65980    0.12860    1.000
    H36      H        0.59190    0.72000    0.16900    1.000
    C56      C        0.52179    0.40110    0.16940    1.000
    C57      C        0.75517    0.91360    0.68970    1.000
    H37      H        0.75810    0.85260    0.72910    1.000
    C58      C        0.75638    0.91000    0.57370    1.000
    H38      H        0.76140    0.84820    0.53690    1.000
    C59      C        0.73430    0.91480    0.32620    1.000
    H39      H        0.72340    0.85560    0.36300    1.000
    C60      C        0.73480    0.91780    0.21060    1.000
    H40      H        0.72410    0.85960    0.17170    1.000
    O11      O        0.98075    0.68170    0.11670    1.000
    O12      O        0.00303    0.58480    0.26050    1.000
    N21      N        0.82669    0.20010    0.01170    1.000
    N22      N        0.81981    0.12260    0.93890    1.000
    N23      N        0.85518    0.12860    0.85600    1.000
    N24      N        0.88740    0.21080    0.87400    1.000
    C61      C        0.86892    0.25370    0.96770    1.000
    C62      C        0.89293    0.34540    0.01990    1.000
    C63      C        0.89911    0.43530    0.96070    1.000
    H41      H        0.88620    0.43990    0.88730    1.000
    C64      C        0.92472    0.51910    0.01110    1.000
    H42      H        0.92810    0.57990    0.97140    1.000
    C65      C        0.94506    0.51280    0.11900    1.000
    C66      C        0.93740    0.42390    0.17860    1.000
    H43      H        0.94930    0.41990    0.25280    1.000
    C67      C        0.91210    0.34020    0.12860    1.000
    H44      H        0.90810    0.28000    0.16900    1.000
    C68      C        0.97821    0.59890    0.16940    1.000
    C69      C        0.74483    0.08640    0.68970    1.000
    H45      H        0.74190    0.14740    0.72910    1.000
    C70      C        0.74362    0.09000    0.57370    1.000
    H46      H        0.73860    0.15180    0.53690    1.000
    C71      C        0.76570    0.08520    0.32620    1.000
    H47      H        0.77660    0.14440    0.36300    1.000
    C72      C        0.76520    0.08220    0.21060    1.000
    H48      H        0.77590    0.14040    0.17170    1.000
    O13      O        0.98075    0.81830    0.38330    1.000
    O14      O        0.00303    0.91520    0.23950    1.000
    N25      N        0.82669    0.29990    0.48830    1.000
    N26      N        0.81981    0.37740    0.56110    1.000
    N27      N        0.85518    0.37140    0.64400    1.000
    N28      N        0.88740    0.28920    0.62600    1.000
    C73      C        0.86892    0.24630    0.53230    1.000
    C74      C        0.89293    0.15460    0.48010    1.000
    C75      C        0.89911    0.06470    0.53930    1.000
    H49      H        0.88620    0.06010    0.61270    1.000
    C76      C        0.92472    0.98090    0.48890    1.000
    H50      H        0.92810    0.92010    0.52860    1.000
    C77      C        0.94506    0.98720    0.38100    1.000
    C78      C        0.93740    0.07610    0.32140    1.000
    H51      H        0.94930    0.08010    0.24720    1.000
    C79      C        0.91210    0.15980    0.37140    1.000
    H52      H        0.90810    0.22000    0.33100    1.000
    C80      C        0.97821    0.90110    0.33060    1.000
    C81      C        0.74483    0.41360    0.81030    1.000
    H53      H        0.74190    0.35260    0.77090    1.000
    C82      C        0.74362    0.41000    0.92630    1.000
    H54      H        0.73860    0.34820    0.96310    1.000
    C83      C        0.76570    0.41480    0.17380    1.000
    H55      H        0.77660    0.35560    0.13700    1.000
    C84      C        0.76520    0.41780    0.28940    1.000
    H56      H        0.77590    0.35960    0.32830    1.000
    O15      O        0.51925    0.18170    0.38330    1.000
    O16      O        0.49697    0.08480    0.23950    1.000
    N29      N        0.67331    0.70010    0.48830    1.000
    N30      N        0.68019    0.62260    0.56110    1.000
    N31      N        0.64482    0.62860    0.64400    1.000
    N32      N        0.61260    0.71080    0.62600    1.000
    C85      C        0.63108    0.75370    0.53230    1.000
    C86      C        0.60707    0.84540    0.48010    1.000
    C87      C        0.60089    0.93530    0.53930    1.000
    H57      H        0.61380    0.93990    0.61270    1.000
    C88      C        0.57528    0.01910    0.48890    1.000
    H58      H        0.57190    0.07990    0.52860    1.000
    C89      C        0.55494    0.01280    0.38100    1.000
    C90      C        0.56260    0.92390    0.32140    1.000
    H59      H        0.55070    0.91990    0.24720    1.000
    C91      C        0.58790    0.84020    0.37140    1.000
    H60      H        0.59190    0.78000    0.33100    1.000
    C92      C        0.52179    0.09890    0.33060    1.000
    C93      C        0.75517    0.58640    0.81030    1.000
    H61      H        0.75810    0.64740    0.77090    1.000
    C94      C        0.75638    0.59000    0.92630    1.000
    H62      H        0.76140    0.65180    0.96310    1.000
    C95      C        0.73430    0.58520    0.17380    1.000
    H63      H        0.72340    0.64440    0.13700    1.000
    C96      C        0.73480    0.58220    0.28940    1.000
    H64      H        0.72410    0.64040    0.32830    1.000
    Cd1      Cd       0.25000    0.00000    0.05118    1.000
    N33      N        0.25000    0.00000    0.25160    1.000
    N34      N        0.25000    0.00000    0.84870    1.000
    C97      C        0.25000    0.00000    0.48740    1.000
    C98      C        0.25000    0.00000    0.61220    1.000
    Cd2      Cd       0.25000    0.50000    0.44882    1.000
    N35      N        0.25000    0.50000    0.24840    1.000
    N36      N        0.25000    0.50000    0.65130    1.000
    C99      C        0.25000    0.50000    0.01260    1.000
    C100     C        0.25000    0.50000    0.88780    1.000
    Cd3      Cd       0.75000    0.00000    0.94882    1.000
    N37      N        0.75000    0.00000    0.74840    1.000
    N38      N        0.75000    0.00000    0.15130    1.000
    C101     C        0.75000    0.00000    0.51260    1.000
    C102     C        0.75000    0.00000    0.38780    1.000
    Cd4      Cd       0.75000    0.50000    0.55118    1.000
    N39      N        0.75000    0.50000    0.75160    1.000
    N40      N        0.75000    0.50000    0.34870    1.000
    C103     C        0.75000    0.50000    0.98740    1.000
    C104     C        0.75000    0.50000    0.11220    1.000
    Cd5      Cd       0.45754    0.25000    0.25000    1.000
    Cd6      Cd       0.04246    0.75000    0.25000    1.000
    Cd7      Cd       0.54246    0.75000    0.75000    1.000
    Cd8      Cd       0.95754    0.25000    0.75000    1.000
