# CIF file generated by openbabel 3.1.0, see https://openbabel.org
data_I
_chemical_name_common 'image0'
_cell_length_a 20.835
_cell_length_b 10.177
_cell_length_c 16.014
_cell_angle_alpha 90
_cell_angle_beta 106.12
_cell_angle_gamma 90
_space_group_name_H-M_alt 'P 1'
_space_group_name_Hall 'P 1'
loop_
    _symmetry_equiv_pos_as_xyz
    x,y,z
loop_
    _atom_site_label
    _atom_site_type_symbol
    _atom_site_fract_x
    _atom_site_fract_y
    _atom_site_fract_z
    _atom_site_occupancy
    Cd1      Cd       0.05960    0.10735    0.57743    1.000
    O1       O        0.05468    0.97620    0.69860    1.000
    O2       O        0.01197    0.09050    0.42600    1.000
    N1       N        0.96910    0.22750    0.58240    1.000
    N2       N        0.15250    0.00120    0.56360    1.000
    C1       C        0.01140    0.89860    0.65580    1.000
    C2       C        0.99010    0.78690    0.70150    1.000
    C3       C        0.97600    0.65370    0.65440    1.000
    C4       C        0.04890    0.60540    0.68180    1.000
    C5       C        0.92600    0.59570    0.71840    1.000
    C6       C        0.91990    0.72730    0.66940    1.000
    C7       C        0.94250    0.32050    0.52690    1.000
    H1       H        0.96740    0.35060    0.48910    1.000
    C8       C        0.88160    0.37770    0.51930    1.000
    H2       H        0.86520    0.44310    0.47640    1.000
    C9       C        0.84460    0.34040    0.57340    1.000
    C10      C        0.87120    0.24170    0.63170    1.000
    H3       H        0.84660    0.20840    0.66890    1.000
    C11      C        0.93270    0.19170    0.63610    1.000
    H4       H        0.95090    0.12790    0.67950    1.000
    C12      C        0.77760    0.39810    0.56880    1.000
    C13      C        0.74430    0.47990    0.50370    1.000
    H5       H        0.76360    0.50330    0.45850    1.000
    C14      C        0.18300    0.02830    0.50380    1.000
    H6       H        0.16110    0.08520    0.45770    1.000
    C15      C        0.18570    0.92380    0.62710    1.000
    H7       H        0.16570    0.90410    0.67220    1.000
    C16      C        0.74690    0.36990    0.63280    1.000
    H8       H        0.76790    0.31390    0.68000    1.000
    Cd2      Cd       0.55960    0.60735    0.57743    1.000
    O3       O        0.55468    0.47620    0.69860    1.000
    O4       O        0.51197    0.59050    0.42600    1.000
    N3       N        0.46910    0.72750    0.58240    1.000
    N4       N        0.65250    0.50120    0.56360    1.000
    C17      C        0.51140    0.39860    0.65580    1.000
    C18      C        0.49010    0.28690    0.70150    1.000
    C19      C        0.47600    0.15370    0.65440    1.000
    C20      C        0.54890    0.10540    0.68180    1.000
    C21      C        0.42600    0.09570    0.71840    1.000
    C22      C        0.41990    0.22730    0.66940    1.000
    C23      C        0.44250    0.82050    0.52690    1.000
    H9       H        0.46740    0.85060    0.48910    1.000
    C24      C        0.38160    0.87770    0.51930    1.000
    H10      H        0.36520    0.94310    0.47640    1.000
    C25      C        0.34460    0.84040    0.57340    1.000
    C26      C        0.37120    0.74170    0.63170    1.000
    H11      H        0.34660    0.70840    0.66890    1.000
    C27      C        0.43270    0.69170    0.63610    1.000
    H12      H        0.45090    0.62790    0.67950    1.000
    C28      C        0.27760    0.89810    0.56880    1.000
    C29      C        0.24430    0.97990    0.50370    1.000
    H13      H        0.26360    0.00330    0.45850    1.000
    C30      C        0.68300    0.52830    0.50380    1.000
    H14      H        0.66110    0.58520    0.45770    1.000
    C31      C        0.68570    0.42380    0.62710    1.000
    H15      H        0.66570    0.40410    0.67220    1.000
    C32      C        0.24690    0.86990    0.63280    1.000
    H16      H        0.26790    0.81390    0.68000    1.000
    Cd3      Cd       0.94040    0.10735    0.92257    1.000
    O5       O        0.94532    0.97620    0.80140    1.000
    O6       O        0.98803    0.09050    0.07400    1.000
    N5       N        0.03090    0.22750    0.91760    1.000
    N6       N        0.84750    0.00120    0.93640    1.000
    C33      C        0.98860    0.89860    0.84420    1.000
    C34      C        0.00990    0.78690    0.79850    1.000
    C35      C        0.02400    0.65370    0.84560    1.000
    C36      C        0.95110    0.60540    0.81820    1.000
    C37      C        0.07400    0.59570    0.78160    1.000
    C38      C        0.08010    0.72730    0.83060    1.000
    C39      C        0.05750    0.32050    0.97310    1.000
    H17      H        0.03260    0.35060    0.01090    1.000
    C40      C        0.11840    0.37770    0.98070    1.000
    H18      H        0.13480    0.44310    0.02360    1.000
    C41      C        0.15540    0.34040    0.92660    1.000
    C42      C        0.12880    0.24170    0.86830    1.000
    H19      H        0.15340    0.20840    0.83110    1.000
    C43      C        0.06730    0.19170    0.86390    1.000
    H20      H        0.04910    0.12790    0.82050    1.000
    C44      C        0.22240    0.39810    0.93120    1.000
    C45      C        0.25570    0.47990    0.99630    1.000
    H21      H        0.23640    0.50330    0.04150    1.000
    C46      C        0.81700    0.02830    0.99620    1.000
    H22      H        0.83890    0.08520    0.04230    1.000
    C47      C        0.81430    0.92380    0.87290    1.000
    H23      H        0.83430    0.90410    0.82780    1.000
    C48      C        0.25310    0.36990    0.86720    1.000
    H24      H        0.23210    0.31390    0.82000    1.000
    Cd4      Cd       0.44040    0.60735    0.92257    1.000
    O7       O        0.44532    0.47620    0.80140    1.000
    O8       O        0.48803    0.59050    0.07400    1.000
    N7       N        0.53090    0.72750    0.91760    1.000
    N8       N        0.34750    0.50120    0.93640    1.000
    C49      C        0.48860    0.39860    0.84420    1.000
    C50      C        0.50990    0.28690    0.79850    1.000
    C51      C        0.52400    0.15370    0.84560    1.000
    C52      C        0.45110    0.10540    0.81820    1.000
    C53      C        0.57400    0.09570    0.78160    1.000
    C54      C        0.58010    0.22730    0.83060    1.000
    C55      C        0.55750    0.82050    0.97310    1.000
    H25      H        0.53260    0.85060    0.01090    1.000
    C56      C        0.61840    0.87770    0.98070    1.000
    H26      H        0.63480    0.94310    0.02360    1.000
    C57      C        0.65540    0.84040    0.92660    1.000
    C58      C        0.62880    0.74170    0.86830    1.000
    H27      H        0.65340    0.70840    0.83110    1.000
    C59      C        0.56730    0.69170    0.86390    1.000
    H28      H        0.54910    0.62790    0.82050    1.000
    C60      C        0.72240    0.89810    0.93120    1.000
    C61      C        0.75570    0.97990    0.99630    1.000
    H29      H        0.73640    0.00330    0.04150    1.000
    C62      C        0.31700    0.52830    0.99620    1.000
    H30      H        0.33890    0.58520    0.04230    1.000
    C63      C        0.31430    0.42380    0.87290    1.000
    H31      H        0.33430    0.40410    0.82780    1.000
    C64      C        0.75310    0.86990    0.86720    1.000
    H32      H        0.73210    0.81390    0.82000    1.000
    Cd5      Cd       0.94040    0.89265    0.42257    1.000
    O9       O        0.94532    0.02380    0.30140    1.000
    O10      O        0.98803    0.90950    0.57400    1.000
    N9       N        0.03090    0.77250    0.41760    1.000
    N10      N        0.84750    0.99880    0.43640    1.000
    C65      C        0.98860    0.10140    0.34420    1.000
    C66      C        0.00990    0.21310    0.29850    1.000
    C67      C        0.02400    0.34630    0.34560    1.000
    C68      C        0.95110    0.39460    0.31820    1.000
    C69      C        0.07400    0.40430    0.28160    1.000
    C70      C        0.08010    0.27270    0.33060    1.000
    C71      C        0.05750    0.67950    0.47310    1.000
    H33      H        0.03260    0.64940    0.51090    1.000
    C72      C        0.11840    0.62230    0.48070    1.000
    H34      H        0.13480    0.55690    0.52360    1.000
    C73      C        0.15540    0.65960    0.42660    1.000
    C74      C        0.12880    0.75830    0.36830    1.000
    H35      H        0.15340    0.79160    0.33110    1.000
    C75      C        0.06730    0.80830    0.36390    1.000
    H36      H        0.04910    0.87210    0.32050    1.000
    C76      C        0.22240    0.60190    0.43120    1.000
    C77      C        0.25570    0.52010    0.49630    1.000
    H37      H        0.23640    0.49670    0.54150    1.000
    C78      C        0.81700    0.97170    0.49620    1.000
    H38      H        0.83890    0.91480    0.54230    1.000
    C79      C        0.81430    0.07620    0.37290    1.000
    H39      H        0.83430    0.09590    0.32780    1.000
    C80      C        0.25310    0.63010    0.36720    1.000
    H40      H        0.23210    0.68610    0.32000    1.000
    Cd6      Cd       0.44040    0.39265    0.42257    1.000
    O11      O        0.44532    0.52380    0.30140    1.000
    O12      O        0.48803    0.40950    0.57400    1.000
    N11      N        0.53090    0.27250    0.41760    1.000
    N12      N        0.34750    0.49880    0.43640    1.000
    C81      C        0.48860    0.60140    0.34420    1.000
    C82      C        0.50990    0.71310    0.29850    1.000
    C83      C        0.52400    0.84630    0.34560    1.000
    C84      C        0.45110    0.89460    0.31820    1.000
    C85      C        0.57400    0.90430    0.28160    1.000
    C86      C        0.58010    0.77270    0.33060    1.000
    C87      C        0.55750    0.17950    0.47310    1.000
    H41      H        0.53260    0.14940    0.51090    1.000
    C88      C        0.61840    0.12230    0.48070    1.000
    H42      H        0.63480    0.05690    0.52360    1.000
    C89      C        0.65540    0.15960    0.42660    1.000
    C90      C        0.62880    0.25830    0.36830    1.000
    H43      H        0.65340    0.29160    0.33110    1.000
    C91      C        0.56730    0.30830    0.36390    1.000
    H44      H        0.54910    0.37210    0.32050    1.000
    C92      C        0.72240    0.10190    0.43120    1.000
    C93      C        0.75570    0.02010    0.49630    1.000
    H45      H        0.73640    0.99670    0.54150    1.000
    C94      C        0.31700    0.47170    0.49620    1.000
    H46      H        0.33890    0.41480    0.54230    1.000
    C95      C        0.31430    0.57620    0.37290    1.000
    H47      H        0.33430    0.59590    0.32780    1.000
    C96      C        0.75310    0.13010    0.36720    1.000
    H48      H        0.73210    0.18610    0.32000    1.000
    Cd7      Cd       0.05960    0.89265    0.07743    1.000
    O13      O        0.05468    0.02380    0.19860    1.000
    O14      O        0.01197    0.90950    0.92600    1.000
    N13      N        0.96910    0.77250    0.08240    1.000
    N14      N        0.15250    0.99880    0.06360    1.000
    C97      C        0.01140    0.10140    0.15580    1.000
    C98      C        0.99010    0.21310    0.20150    1.000
    C99      C        0.97600    0.34630    0.15440    1.000
    C100     C        0.04890    0.39460    0.18180    1.000
    C101     C        0.92600    0.40430    0.21840    1.000
    C102     C        0.91990    0.27270    0.16940    1.000
    C103     C        0.94250    0.67950    0.02690    1.000
    H49      H        0.96740    0.64940    0.98910    1.000
    C104     C        0.88160    0.62230    0.01930    1.000
    H50      H        0.86520    0.55690    0.97640    1.000
    C105     C        0.84460    0.65960    0.07340    1.000
    C106     C        0.87120    0.75830    0.13170    1.000
    H51      H        0.84660    0.79160    0.16890    1.000
    C107     C        0.93270    0.80830    0.13610    1.000
    H52      H        0.95090    0.87210    0.17950    1.000
    C108     C        0.77760    0.60190    0.06880    1.000
    C109     C        0.74430    0.52010    0.00370    1.000
    H53      H        0.76360    0.49670    0.95850    1.000
    C110     C        0.18300    0.97170    0.00380    1.000
    H54      H        0.16110    0.91480    0.95770    1.000
    C111     C        0.18570    0.07620    0.12710    1.000
    H55      H        0.16570    0.09590    0.17220    1.000
    C112     C        0.74690    0.63010    0.13280    1.000
    H56      H        0.76790    0.68610    0.18000    1.000
    Cd8      Cd       0.55960    0.39265    0.07743    1.000
    O15      O        0.55468    0.52380    0.19860    1.000
    O16      O        0.51197    0.40950    0.92600    1.000
    N15      N        0.46910    0.27250    0.08240    1.000
    N16      N        0.65250    0.49880    0.06360    1.000
    C113     C        0.51140    0.60140    0.15580    1.000
    C114     C        0.49010    0.71310    0.20150    1.000
    C115     C        0.47600    0.84630    0.15440    1.000
    C116     C        0.54890    0.89460    0.18180    1.000
    C117     C        0.42600    0.90430    0.21840    1.000
    C118     C        0.41990    0.77270    0.16940    1.000
    C119     C        0.44250    0.17950    0.02690    1.000
    H57      H        0.46740    0.14940    0.98910    1.000
    C120     C        0.38160    0.12230    0.01930    1.000
    H58      H        0.36520    0.05690    0.97640    1.000
    C121     C        0.34460    0.15960    0.07340    1.000
    C122     C        0.37120    0.25830    0.13170    1.000
    H59      H        0.34660    0.29160    0.16890    1.000
    C123     C        0.43270    0.30830    0.13610    1.000
    H60      H        0.45090    0.37210    0.17950    1.000
    C124     C        0.27760    0.10190    0.06880    1.000
    C125     C        0.24430    0.02010    0.00370    1.000
    H61      H        0.26360    0.99670    0.95850    1.000
    C126     C        0.68300    0.47170    0.00380    1.000
    H62      H        0.66110    0.41480    0.95770    1.000
    C127     C        0.68570    0.57620    0.12710    1.000
    H63      H        0.66570    0.59590    0.17220    1.000
    C128     C        0.24690    0.13010    0.13280    1.000
    H64      H        0.26790    0.18610    0.18000    1.000
