# CIF file generated by openbabel 3.1.0, see https://openbabel.org
data_I
_chemical_name_common 'image0'
_cell_length_a 12.9785
_cell_length_b 11.7197
_cell_length_c 27.087
_cell_angle_alpha 90
_cell_angle_beta 105.699
_cell_angle_gamma 90
_space_group_name_H-M_alt 'P 1'
_space_group_name_Hall 'P 1'
loop_
    _symmetry_equiv_pos_as_xyz
    x,y,z
loop_
    _atom_site_label
    _atom_site_type_symbol
    _atom_site_fract_x
    _atom_site_fract_y
    _atom_site_fract_z
    _atom_site_occupancy
    C1       C        0.10480    0.25960    0.00529    1.000
    C2       C        0.79830    0.32390    0.97913    1.000
    C3       C        0.20450    0.20190    0.99903    1.000
    C4       C        0.70870    0.36780    0.93669    1.000
    C5       C        0.21700    0.08390    0.00674    1.000
    H1       H        0.16190    0.04120    0.01340    1.000
    C6       C        0.15930    0.53580    0.66154    1.000
    C7       C        0.31050    0.03070    0.00442    1.000
    H2       H        0.31910    0.95250    0.01000    1.000
    C8       C        0.69850    0.48340    0.92571    1.000
    H3       H        0.74860    0.53440    0.94480    1.000
    C9       C        0.39090    0.09470    0.99381    1.000
    C10      C        0.54930    0.33170    0.86904    1.000
    H4       H        0.49860    0.28060    0.85050    1.000
    C11      C        0.61410    0.52310    0.88653    1.000
    H5       H        0.60660    0.60090    0.87980    1.000
    C12      C        0.28430    0.26340    0.98779    1.000
    H6       H        0.27550    0.34160    0.98230    1.000
    C13      C        0.18950    0.42370    0.66891    1.000
    H7       H        0.15500    0.36970    0.64500    1.000
    C14      C        0.07740    0.57250    0.61323    1.000
    C15      C        0.54060    0.44650    0.85720    1.000
    C16      C        0.26980    0.38870    0.71097    1.000
    H8       H        0.28860    0.31210    0.71540    1.000
    C17      C        0.63400    0.29250    0.90880    1.000
    H9       H        0.64010    0.21510    0.91650    1.000
    C18      C        0.37780    0.21200    0.98437    1.000
    H10      H        0.43110    0.25450    0.97590    1.000
    C19      C        0.32180    0.46870    0.74637    1.000
    C20      C        0.21000    0.61500    0.69771    1.000
    H11      H        0.18870    0.69100    0.69380    1.000
    C21      C        0.29300    0.58250    0.74005    1.000
    H12      H        0.32840    0.63670    0.76370    1.000
    Mg1      Mg       0.92978    0.24831    0.05631    1.000
    N1       N        0.45870    0.49670    0.81622    1.000
    N2       N        0.40450    0.42210    0.78816    1.000
    N3       N        0.49140    0.04940    0.99107    1.000
    O1       O        0.79808    0.22057    0.99193    1.000
    O2       O        0.87279    0.38932    0.00331    1.000
    O3       O        0.04957    0.49814    0.57834    1.000
    O4       O        0.04340    0.67250    0.61084    1.000
    O5       O        0.09746    0.36377    0.99762    1.000
    O6       O        0.03717    0.19803    0.01830    1.000
    C22      C        0.89520    0.25960    0.49471    1.000
    C23      C        0.20170    0.32390    0.52087    1.000
    C24      C        0.79550    0.20190    0.50097    1.000
    C25      C        0.29130    0.36780    0.56331    1.000
    C26      C        0.78300    0.08390    0.49326    1.000
    H13      H        0.83810    0.04120    0.48660    1.000
    C27      C        0.84070    0.53580    0.83846    1.000
    C28      C        0.68950    0.03070    0.49558    1.000
    H14      H        0.68090    0.95250    0.49000    1.000
    C29      C        0.30150    0.48340    0.57429    1.000
    H15      H        0.25140    0.53440    0.55520    1.000
    C30      C        0.60910    0.09470    0.50619    1.000
    C31      C        0.45070    0.33170    0.63096    1.000
    H16      H        0.50140    0.28060    0.64950    1.000
    C32      C        0.38590    0.52310    0.61347    1.000
    H17      H        0.39340    0.60090    0.62020    1.000
    C33      C        0.71570    0.26340    0.51221    1.000
    H18      H        0.72450    0.34160    0.51770    1.000
    C34      C        0.81050    0.42370    0.83109    1.000
    H19      H        0.84500    0.36970    0.85500    1.000
    C35      C        0.92260    0.57250    0.88677    1.000
    C36      C        0.45940    0.44650    0.64280    1.000
    C37      C        0.73020    0.38870    0.78903    1.000
    H20      H        0.71140    0.31210    0.78460    1.000
    C38      C        0.36600    0.29250    0.59120    1.000
    H21      H        0.35990    0.21510    0.58350    1.000
    C39      C        0.62220    0.21200    0.51563    1.000
    H22      H        0.56890    0.25450    0.52410    1.000
    C40      C        0.67820    0.46870    0.75363    1.000
    C41      C        0.79000    0.61500    0.80229    1.000
    H23      H        0.81130    0.69100    0.80620    1.000
    C42      C        0.70700    0.58250    0.75995    1.000
    H24      H        0.67160    0.63670    0.73630    1.000
    Mg2      Mg       0.07022    0.24831    0.44369    1.000
    N4       N        0.54130    0.49670    0.68378    1.000
    N5       N        0.59550    0.42210    0.71184    1.000
    N6       N        0.50860    0.04940    0.50893    1.000
    O7       O        0.20192    0.22057    0.50807    1.000
    O8       O        0.12721    0.38932    0.49669    1.000
    O9       O        0.95043    0.49814    0.92166    1.000
    O10      O        0.95660    0.67250    0.88916    1.000
    O11      O        0.90254    0.36377    0.50238    1.000
    O12      O        0.96283    0.19803    0.48170    1.000
    C43      C        0.89520    0.74040    0.99471    1.000
    C44      C        0.20170    0.67610    0.02087    1.000
    C45      C        0.79550    0.79810    0.00097    1.000
    C46      C        0.29130    0.63220    0.06331    1.000
    C47      C        0.78300    0.91610    0.99326    1.000
    H25      H        0.83810    0.95880    0.98660    1.000
    C48      C        0.84070    0.46420    0.33846    1.000
    C49      C        0.68950    0.96930    0.99558    1.000
    H26      H        0.68090    0.04750    0.99000    1.000
    C50      C        0.30150    0.51660    0.07429    1.000
    H27      H        0.25140    0.46560    0.05520    1.000
    C51      C        0.60910    0.90530    0.00619    1.000
    C52      C        0.45070    0.66830    0.13096    1.000
    H28      H        0.50140    0.71940    0.14950    1.000
    C53      C        0.38590    0.47690    0.11347    1.000
    H29      H        0.39340    0.39910    0.12020    1.000
    C54      C        0.71570    0.73660    0.01221    1.000
    H30      H        0.72450    0.65840    0.01770    1.000
    C55      C        0.81050    0.57630    0.33109    1.000
    H31      H        0.84500    0.63030    0.35500    1.000
    C56      C        0.92260    0.42750    0.38677    1.000
    C57      C        0.45940    0.55350    0.14280    1.000
    C58      C        0.73020    0.61130    0.28903    1.000
    H32      H        0.71140    0.68790    0.28460    1.000
    C59      C        0.36600    0.70750    0.09120    1.000
    H33      H        0.35990    0.78490    0.08350    1.000
    C60      C        0.62220    0.78800    0.01563    1.000
    H34      H        0.56890    0.74550    0.02410    1.000
    C61      C        0.67820    0.53130    0.25363    1.000
    C62      C        0.79000    0.38500    0.30229    1.000
    H35      H        0.81130    0.30900    0.30620    1.000
    C63      C        0.70700    0.41750    0.25995    1.000
    H36      H        0.67160    0.36330    0.23630    1.000
    Mg3      Mg       0.07022    0.75169    0.94369    1.000
    N7       N        0.54130    0.50330    0.18378    1.000
    N8       N        0.59550    0.57790    0.21184    1.000
    N9       N        0.50860    0.95060    0.00893    1.000
    O13      O        0.20192    0.77943    0.00807    1.000
    O14      O        0.12721    0.61068    0.99669    1.000
    O15      O        0.95043    0.50186    0.42166    1.000
    O16      O        0.95660    0.32750    0.38916    1.000
    O17      O        0.90254    0.63623    0.00238    1.000
    O18      O        0.96283    0.80197    0.98170    1.000
    C64      C        0.10480    0.74040    0.50529    1.000
    C65      C        0.79830    0.67610    0.47913    1.000
    C66      C        0.20450    0.79810    0.49903    1.000
    C67      C        0.70870    0.63220    0.43669    1.000
    C68      C        0.21700    0.91610    0.50674    1.000
    H37      H        0.16190    0.95880    0.51340    1.000
    C69      C        0.15930    0.46420    0.16154    1.000
    C70      C        0.31050    0.96930    0.50442    1.000
    H38      H        0.31910    0.04750    0.51000    1.000
    C71      C        0.69850    0.51660    0.42571    1.000
    H39      H        0.74860    0.46560    0.44480    1.000
    C72      C        0.39090    0.90530    0.49381    1.000
    C73      C        0.54930    0.66830    0.36904    1.000
    H40      H        0.49860    0.71940    0.35050    1.000
    C74      C        0.61410    0.47690    0.38653    1.000
    H41      H        0.60660    0.39910    0.37980    1.000
    C75      C        0.28430    0.73660    0.48779    1.000
    H42      H        0.27550    0.65840    0.48230    1.000
    C76      C        0.18950    0.57630    0.16891    1.000
    H43      H        0.15500    0.63030    0.14500    1.000
    C77      C        0.07740    0.42750    0.11323    1.000
    C78      C        0.54060    0.55350    0.35720    1.000
    C79      C        0.26980    0.61130    0.21097    1.000
    H44      H        0.28860    0.68790    0.21540    1.000
    C80      C        0.63400    0.70750    0.40880    1.000
    H45      H        0.64010    0.78490    0.41650    1.000
    C81      C        0.37780    0.78800    0.48437    1.000
    H46      H        0.43110    0.74550    0.47590    1.000
    C82      C        0.32180    0.53130    0.24637    1.000
    C83      C        0.21000    0.38500    0.19771    1.000
    H47      H        0.18870    0.30900    0.19380    1.000
    C84      C        0.29300    0.41750    0.24005    1.000
    H48      H        0.32840    0.36330    0.26370    1.000
    Mg4      Mg       0.92978    0.75169    0.55631    1.000
    N10      N        0.45870    0.50330    0.31622    1.000
    N11      N        0.40450    0.57790    0.28816    1.000
    N12      N        0.49140    0.95060    0.49107    1.000
    O19      O        0.79808    0.77943    0.49193    1.000
    O20      O        0.87279    0.61068    0.50331    1.000
    O21      O        0.04957    0.50186    0.07834    1.000
    O22      O        0.04340    0.32750    0.11084    1.000
    O23      O        0.09746    0.63623    0.49762    1.000
    O24      O        0.03717    0.80197    0.51830    1.000
    Mg5      Mg       0.00000    0.50000    0.00000    1.000
    Mg6      Mg       0.00000    0.50000    0.50000    1.000
