# CIF file generated by openbabel 3.1.0, see https://openbabel.org
data_I
_chemical_name_common 'image0'
_cell_length_a 16.994
_cell_length_b 18.914
_cell_length_c 18.948
_cell_angle_alpha 108.314
_cell_angle_beta 106.718
_cell_angle_gamma 109.066
_space_group_name_H-M_alt 'P 1'
_space_group_name_Hall 'P 1'
loop_
    _symmetry_equiv_pos_as_xyz
    x,y,z
loop_
    _atom_site_label
    _atom_site_type_symbol
    _atom_site_fract_x
    _atom_site_fract_y
    _atom_site_fract_z
    _atom_site_occupancy
    Zn1      Zn       0.94087    0.78929    0.14184    1.000
    Zn2      Zn       0.17716    0.93525    0.25885    1.000
    Zn3      Zn       0.58440    0.83720    0.19279    1.000
    C1       C        0.66200    0.38470    0.39860    1.000
    C2       C        0.71650    0.41580    0.36240    1.000
    C3       C        0.78950    0.49470    0.40770    1.000
    C4       C        0.83000    0.53100    0.49150    1.000
    C5       C        0.76230    0.50610    0.52810    1.000
    C6       C        0.68320    0.43110    0.48110    1.000
    C7       C        0.57970    0.29930    0.34840    1.000
    C8       C        0.43410    0.24030    0.23650    1.000
    C9       C        0.40170    0.16220    0.23540    1.000
    C10      C        0.30300    0.10300    0.18000    1.000
    C11      C        0.25200    0.11900    0.11700    1.000
    C12      C        0.30590    0.18660    0.10740    1.000
    C13      C        0.38520    0.25250    0.17280    1.000
    H1       H        0.40630    0.30530    0.17450    1.000
    C14      C        0.17800    0.16950    0.98830    1.000
    C15      C        0.31360    0.24050    0.00640    1.000
    C16      C        0.69380    0.36560    0.27480    1.000
    H2       H        0.62950    0.34700    0.24000    1.000
    H3       H        0.73210    0.39950    0.25690    1.000
    C17      C        0.68130    0.23370    0.19140    1.000
    C18      C        0.65820    0.24380    0.12050    1.000
    C19      C        0.60600    0.09200    0.03100    1.000
    C20      C        0.65490    0.09480    0.11430    1.000
    C21      C        0.68250    0.15980    0.18920    1.000
    H4       H        0.70170    0.15450    0.23760    1.000
    C22      C        0.61570    0.97610    0.15010    1.000
    C23      C        0.72090    0.98830    0.10510    1.000
    C24      C        0.85110    0.53830    0.37310    1.000
    C25      C        0.00900    0.58780    0.40250    1.000
    C26      C        0.09210    0.59900    0.45690    1.000
    H5       H        0.09410    0.56700    0.48540    1.000
    C27      C        0.17440    0.66240    0.46650    1.000
    H6       H        0.23150    0.67210    0.50260    1.000
    C28      C        0.17220    0.70920    0.42470    1.000
    H7       H        0.22640    0.74980    0.43140    1.000
    C29      C        0.08810    0.69460    0.37300    1.000
    C30      C        0.00630    0.63660    0.36310    1.000
    H8       H        0.95000    0.63080    0.32990    1.000
    C31      C        0.01140    0.72420    0.26130    1.000
    C32      C        0.15560    0.81280    0.33980    1.000
    H9       H        0.21570    0.83940    0.38110    1.000
    C33      C        0.99460    0.76190    0.59720    1.000
    C34      C        0.07920    0.77890    0.59820    1.000
    H10      H        0.09330    0.73540    0.57800    1.000
    C35      C        0.14600    0.86330    0.63020    1.000
    H11      H        0.20490    0.87630    0.63310    1.000
    C36      C        0.11960    0.92810    0.65810    1.000
    H12      H        0.15970    0.98410    0.67700    1.000
    C37      C        0.03550    0.90500    0.65600    1.000
    C38      C        0.97010    0.82430    0.62530    1.000
    H13      H        0.91160    0.81200    0.62330    1.000
    C39      C        0.79440    0.55740    0.62300    1.000
    H14      H        0.85090    0.60910    0.64650    1.000
    H15      H        0.74700    0.57090    0.63290    1.000
    C40      C        0.79700    0.51220    0.72990    1.000
    C41      C        0.78800    0.57980    0.77610    1.000
    H16      H        0.79240    0.62210    0.76000    1.000
    C42      C        0.77100    0.58700    0.84400    1.000
    H17      H        0.76830    0.63300    0.87670    1.000
    C43      C        0.75800    0.50900    0.86000    1.000
    H18      H        0.74840    0.50800    0.90530    1.000
    C44      C        0.76060    0.43930    0.80650    1.000
    C45      C        0.77730    0.43990    0.74100    1.000
    H19      H        0.77540    0.39280    0.70380    1.000
    C46      C        0.69000    0.33930    0.85460    1.000
    H20      H        0.65590    0.36380    0.87300    1.000
    C47      C        0.78130    0.31670    0.80270    1.000
    H21      H        0.82300    0.32060    0.77960    1.000
    C48      C        0.47680    0.37590    0.66040    1.000
    C49      C        0.52090    0.37880    0.61080    1.000
    H22      H        0.53600    0.33630    0.58940    1.000
    C50      C        0.54260    0.44630    0.59300    1.000
    C51      C        0.51980    0.50790    0.62550    1.000
    H23      H        0.53530    0.55370    0.61410    1.000
    C52      C        0.62220    0.39970    0.52040    1.000
    H24      H        0.57180    0.34450    0.48100    1.000
    H25      H        0.65790    0.39560    0.56780    1.000
    C53      C        0.47450    0.50360    0.67440    1.000
    H26      H        0.45940    0.54610    0.69550    1.000
    C54      C        0.45120    0.43640    0.69270    1.000
    H27      H        0.41970    0.43210    0.72530    1.000
    C55      C        0.40830    0.22270    0.61500    1.000
    H28      H        0.39380    0.20700    0.55940    1.000
    C56      C        0.45720    0.29740    0.74350    1.000
    H29      H        0.48250    0.34300    0.79480    1.000
    N1       N        0.25900    0.19600    0.03400    1.000
    N2       N        0.17040    0.20420    0.93810    1.000
    N3       N        0.25640    0.24320    0.94520    1.000
    N4       N        0.67600    0.02760    0.12770    1.000
    N5       N        0.62980    0.91160    0.14160    1.000
    N6       N        0.71080    0.92400    0.12260    1.000
    N7       N        0.08460    0.74240    0.32760    1.000
    N8       N        0.12530    0.83690    0.28390    1.000
    N9       N        0.02900    0.79100    0.25500    1.000
    N10      N        0.74530    0.37240    0.82260    1.000
    N11      N        0.68740    0.27030    0.85810    1.000
    N12      N        0.74450    0.25610    0.82310    1.000
    N13      N        0.44770    0.30190    0.67320    1.000
    N14      N        0.42530    0.21860    0.72940    1.000
    N15      N        0.39300    0.17060    0.64680    1.000
    O1       O        0.50610    0.31060    0.30050    1.000
    O2       O        0.71010    0.29570    0.26860    1.000
    O3       O        0.93600    0.51700    0.38800    1.000
    O4       O        0.80970    0.50330    0.65750    1.000
    O5       O        0.58710    0.45510    0.54510    1.000
    N16      N        0.01340    0.97200    0.69140    1.000
    C57      C        0.07430    0.05260    0.75640    1.000
    N17      N        0.02190    0.09370    0.77370    1.000
    N18      N        0.92850    0.03850    0.71940    1.000
    C58      C        0.92330    0.96330    0.66850    1.000
    H30      H        0.86960    0.91600    0.62690    1.000
    C59      C        0.60800    0.16500    0.03500    1.000
    O6       O        0.91200    0.68190    0.57280    1.000
    C60      C        0.92370    0.60620    0.54580    1.000
    Mo1      Mo       0.41913    0.46244    0.03582    1.000
    Mo2      Mo       0.46223    0.63887    0.00092    1.000
    Mo3      Mo       0.28643    0.29055    0.85496    1.000
    Mo4      Mo       0.69520    0.53675    0.15104    1.000
    O7       O        0.30290    0.41000    0.94250    1.000
    O8       O        0.43650    0.56620    0.07830    1.000
    O9       O        0.54710    0.48440    0.06150    1.000
    O10      O        0.41420    0.35230    0.95290    1.000
    O11      O        0.33410    0.56690    0.93920    1.000
    O12      O        0.48070    0.72320    0.08550    1.000
    O13      O        0.31870    0.35900    0.80600    1.000
    Mo5      Mo       0.54195    0.08982    0.59111    1.000
    Mo6      Mo       0.39674    0.07041    0.41989    1.000
    Mo7      Mo       0.42336    0.91072    0.61177    1.000
    Mo8      Mo       0.32998    0.03035    0.58724    1.000
    O14      O        0.31690    0.92250    0.54900    1.000
    O15      O        0.47680    0.05120    0.64780    1.000
    O16      O        0.63840    0.07370    0.62470    1.000
    O17      O        0.52320    0.06380    0.47790    1.000
    O18      O        0.39920    0.06180    0.52080    1.000
    O19      O        0.44490    0.05690    0.34070    1.000
    O20      O        0.27970    0.03040    0.35860    1.000
    O21      O        0.13680    0.96400    0.16620    1.000
    O22      O        0.02700    0.81840    0.08990    1.000
    O23      O        0.14040    0.87410    0.04520    1.000
    O24      O        0.02700    0.92600    0.03660    1.000
    S1       S        0.07890    0.89240    0.07910    1.000
    C61      C        0.79800    0.55100    0.49100    1.000
    C62      C        0.85600    0.65500    0.53600    1.000
    C63      C        0.32830    0.09130    0.16230    1.000
    C64      C        0.27360    0.10160    0.09760    1.000
    O25      O        0.52700    0.30740    0.28580    1.000
    O26      O        0.49600    0.31600    0.31700    1.000
    O27      O        0.93100    0.54100    0.40700    1.000
    O28      O        0.94800    0.67300    0.55810    1.000
    C65      C        0.64900    0.10420    0.04550    1.000
    C66      C        0.65000    0.18400    0.05000    1.000
    C67      C        0.09500    0.06800    0.73100    1.000
    C68      C        0.64700    0.95200    0.05100    1.000
    N19      N        0.64000    0.89230    0.07050    1.000
    N20      N        0.63340    0.00890    0.10320    1.000
    N21      N        0.03510    0.77500    0.23010    1.000
    C69      C        0.17100    0.19000    0.00400    1.000
    N22      N        0.26700    0.20100    0.04100    1.000
    C70      C        0.06200    0.04810    0.75100    1.000
    Zn4      Zn       0.05913    0.21071    0.85816    1.000
    Zn5      Zn       0.82284    0.06475    0.74115    1.000
    Zn6      Zn       0.41560    0.16280    0.80721    1.000
    C71      C        0.33800    0.61530    0.60140    1.000
    C72      C        0.28350    0.58420    0.63760    1.000
    C73      C        0.21050    0.50530    0.59230    1.000
    C74      C        0.17000    0.46900    0.50850    1.000
    C75      C        0.23770    0.49390    0.47190    1.000
    C76      C        0.31680    0.56890    0.51890    1.000
    C77      C        0.42030    0.70070    0.65160    1.000
    C78      C        0.56590    0.75970    0.76350    1.000
    C79      C        0.59830    0.83780    0.76460    1.000
    C80      C        0.69700    0.89700    0.82000    1.000
    C81      C        0.74800    0.88100    0.88300    1.000
    C82      C        0.69410    0.81340    0.89260    1.000
    C83      C        0.61480    0.74750    0.82720    1.000
    H31      H        0.59370    0.69470    0.82550    1.000
    C84      C        0.82200    0.83050    0.01170    1.000
    C85      C        0.68640    0.75950    0.99360    1.000
    C86      C        0.30620    0.63440    0.72520    1.000
    H32      H        0.37050    0.65300    0.76000    1.000
    H33      H        0.26790    0.60050    0.74310    1.000
    C87      C        0.31870    0.76630    0.80860    1.000
    C88      C        0.34180    0.75620    0.87950    1.000
    C89      C        0.39400    0.90800    0.96900    1.000
    C90      C        0.34510    0.90520    0.88570    1.000
    C91      C        0.31750    0.84020    0.81080    1.000
    H34      H        0.29830    0.84550    0.76240    1.000
    C92      C        0.38430    0.02390    0.84990    1.000
    C93      C        0.27910    0.01170    0.89490    1.000
    C94      C        0.14890    0.46170    0.62690    1.000
    C95      C        0.99100    0.41220    0.59750    1.000
    C96      C        0.90790    0.40100    0.54310    1.000
    H35      H        0.90590    0.43300    0.51460    1.000
    C97      C        0.82560    0.33760    0.53350    1.000
    H36      H        0.76850    0.32790    0.49740    1.000
    C98      C        0.82780    0.29080    0.57530    1.000
    H37      H        0.77360    0.25020    0.56860    1.000
    C99      C        0.91190    0.30540    0.62700    1.000
    C100     C        0.99370    0.36340    0.63690    1.000
    H38      H        0.05000    0.36920    0.67010    1.000
    C101     C        0.98860    0.27580    0.73870    1.000
    C102     C        0.84440    0.18720    0.66020    1.000
    H39      H        0.78430    0.16060    0.61890    1.000
    C103     C        0.00540    0.23810    0.40280    1.000
    C104     C        0.92080    0.22110    0.40180    1.000
    H40      H        0.90670    0.26460    0.42200    1.000
    C105     C        0.85400    0.13670    0.36980    1.000
    H41      H        0.79510    0.12370    0.36690    1.000
    C106     C        0.88040    0.07190    0.34190    1.000
    H42      H        0.84030    0.01590    0.32300    1.000
    C107     C        0.96450    0.09500    0.34400    1.000
    C108     C        0.02990    0.17570    0.37470    1.000
    H43      H        0.08840    0.18800    0.37670    1.000
    C109     C        0.20560    0.44260    0.37700    1.000
    H44      H        0.14910    0.39090    0.35350    1.000
    H45      H        0.25300    0.42910    0.36710    1.000
    C110     C        0.20300    0.48780    0.27010    1.000
    C111     C        0.21200    0.42020    0.22390    1.000
    H46      H        0.20760    0.37790    0.24000    1.000
    C112     C        0.22900    0.41300    0.15600    1.000
    H47      H        0.23170    0.36700    0.12330    1.000
    C113     C        0.24200    0.49100    0.14000    1.000
    H48      H        0.25160    0.49200    0.09470    1.000
    C114     C        0.23940    0.56070    0.19350    1.000
    C115     C        0.22270    0.56010    0.25900    1.000
    H49      H        0.22460    0.60720    0.29620    1.000
    C116     C        0.31000    0.66070    0.14540    1.000
    H50      H        0.34410    0.63620    0.12700    1.000
    C117     C        0.21870    0.68330    0.19730    1.000
    H51      H        0.17700    0.67940    0.22040    1.000
    C118     C        0.52320    0.62410    0.33960    1.000
    C119     C        0.47910    0.62120    0.38920    1.000
    H52      H        0.46400    0.66370    0.41060    1.000
    C120     C        0.45740    0.55370    0.40700    1.000
    C121     C        0.48020    0.49210    0.37450    1.000
    H53      H        0.46470    0.44630    0.38590    1.000
    C122     C        0.37780    0.60030    0.47960    1.000
    H54      H        0.42820    0.65550    0.51900    1.000
    H55      H        0.34210    0.60440    0.43220    1.000
    C123     C        0.52550    0.49640    0.32560    1.000
    H56      H        0.54060    0.45390    0.30450    1.000
    C124     C        0.54880    0.56360    0.30730    1.000
    H57      H        0.58030    0.56790    0.27470    1.000
    C125     C        0.59170    0.77730    0.38500    1.000
    H58      H        0.60620    0.79300    0.44060    1.000
    C126     C        0.54280    0.70260    0.25650    1.000
    H59      H        0.51750    0.65700    0.20520    1.000
    N23      N        0.74100    0.80400    0.96600    1.000
    N24      N        0.82960    0.79580    0.06190    1.000
    N25      N        0.74360    0.75680    0.05480    1.000
    N26      N        0.32400    0.97240    0.87230    1.000
    N27      N        0.37020    0.08840    0.85840    1.000
    N28      N        0.28920    0.07600    0.87740    1.000
    N29      N        0.91540    0.25760    0.67240    1.000
    N30      N        0.87470    0.16310    0.71610    1.000
    N31      N        0.97100    0.20900    0.74500    1.000
    N32      N        0.25470    0.62760    0.17740    1.000
    N33      N        0.31260    0.72970    0.14190    1.000
    N34      N        0.25550    0.74390    0.17690    1.000
    N35      N        0.55230    0.69810    0.32680    1.000
    N36      N        0.57470    0.78140    0.27060    1.000
    N37      N        0.60700    0.82940    0.35320    1.000
    O29      O        0.49390    0.68940    0.69950    1.000
    O30      O        0.28990    0.70430    0.73140    1.000
    O31      O        0.06400    0.48300    0.61200    1.000
    O32      O        0.19030    0.49670    0.34250    1.000
    O33      O        0.41290    0.54490    0.45490    1.000
    N38      N        0.98660    0.02800    0.30860    1.000
    C127     C        0.92570    0.94740    0.24360    1.000
    N39      N        0.97810    0.90630    0.22630    1.000
    N40      N        0.07150    0.96150    0.28060    1.000
    C128     C        0.07670    0.03670    0.33150    1.000
    H60      H        0.13040    0.08400    0.37310    1.000
    C129     C        0.39200    0.83500    0.96500    1.000
    O34      O        0.08800    0.31810    0.42720    1.000
    C130     C        0.07630    0.39380    0.45420    1.000
    Mo9      Mo       0.58087    0.53756    0.96418    1.000
    Mo10     Mo       0.53777    0.36113    0.99908    1.000
    Mo11     Mo       0.71357    0.70945    0.14504    1.000
    Mo12     Mo       0.30480    0.46325    0.84896    1.000
    O35      O        0.69710    0.59000    0.05750    1.000
    O36      O        0.56350    0.43380    0.92170    1.000
    O37      O        0.45290    0.51560    0.93850    1.000
    O38      O        0.58580    0.64770    0.04710    1.000
    O39      O        0.66590    0.43310    0.06080    1.000
    O40      O        0.51930    0.27680    0.91450    1.000
    O41      O        0.68130    0.64100    0.19400    1.000
    Mo13     Mo       0.45805    0.91018    0.40889    1.000
    Mo14     Mo       0.60326    0.92959    0.58011    1.000
    Mo15     Mo       0.57664    0.08928    0.38823    1.000
    Mo16     Mo       0.67002    0.96965    0.41276    1.000
    O42      O        0.68310    0.07750    0.45100    1.000
    O43      O        0.52320    0.94880    0.35220    1.000
    O44      O        0.36160    0.92630    0.37530    1.000
    O45      O        0.47680    0.93620    0.52210    1.000
    O46      O        0.60080    0.93820    0.47920    1.000
    O47      O        0.55510    0.94310    0.65930    1.000
    O48      O        0.72030    0.96960    0.64140    1.000
    O49      O        0.86320    0.03600    0.83380    1.000
    O50      O        0.97300    0.18160    0.91010    1.000
    O51      O        0.85960    0.12590    0.95480    1.000
    O52      O        0.97300    0.07400    0.96340    1.000
    S2       S        0.92110    0.10760    0.92090    1.000
    C131     C        0.20200    0.44900    0.50900    1.000
    C132     C        0.14400    0.34500    0.46400    1.000
    C133     C        0.67170    0.90870    0.83770    1.000
    C134     C        0.72640    0.89840    0.90240    1.000
    O53      O        0.47300    0.69260    0.71420    1.000
    O54      O        0.50400    0.68400    0.68300    1.000
    O55      O        0.06900    0.45900    0.59300    1.000
    O56      O        0.05200    0.32700    0.44190    1.000
    C135     C        0.35100    0.89580    0.95450    1.000
    C136     C        0.35000    0.81600    0.95000    1.000
    C137     C        0.90500    0.93200    0.26900    1.000
    C138     C        0.35300    0.04800    0.94900    1.000
    N41      N        0.36000    0.10770    0.92950    1.000
    N42      N        0.36660    0.99110    0.89680    1.000
    N43      N        0.96490    0.22500    0.76990    1.000
    C139     C        0.82900    0.81000    0.99600    1.000
    N44      N        0.73300    0.79900    0.95900    1.000
    C140     C        0.93800    0.95190    0.24900    1.000
