# CIF file generated by openbabel 3.1.0, see https://openbabel.org
data_I
_chemical_name_common 'image0'
_cell_length_a 10.4618
_cell_length_b 10.4947
_cell_length_c 6.313
_cell_angle_alpha 90
_cell_angle_beta 115.318
_cell_angle_gamma 90
_space_group_name_H-M_alt 'P 1'
_space_group_name_Hall 'P 1'
loop_
    _symmetry_equiv_pos_as_xyz
    x,y,z
loop_
    _atom_site_label
    _atom_site_type_symbol
    _atom_site_fract_x
    _atom_site_fract_y
    _atom_site_fract_z
    _atom_site_occupancy
    C1       C        0.31540    0.21000    0.54620    1.000
    H1       H        0.39680    0.26460    0.58170    1.000
    H2       H        0.32580    0.17000    0.69120    1.000
    N1       N        0.31400    0.11090    0.38170    1.000
    H3       H        0.30070    0.14820    0.24540    1.000
    H4       H        0.24000    0.05890    0.35300    1.000
    C2       C        0.81540    0.71000    0.54620    1.000
    H5       H        0.89680    0.76460    0.58170    1.000
    H6       H        0.82580    0.67000    0.69120    1.000
    N2       N        0.81400    0.61090    0.38170    1.000
    H7       H        0.80070    0.64820    0.24540    1.000
    H8       H        0.74000    0.55890    0.35300    1.000
    C3       C        0.68460    0.21000    0.95380    1.000
    H9       H        0.60320    0.26460    0.91830    1.000
    H10      H        0.67420    0.17000    0.80880    1.000
    N3       N        0.68600    0.11090    0.11830    1.000
    H11      H        0.69930    0.14820    0.25460    1.000
    H12      H        0.76000    0.05890    0.14700    1.000
    C4       C        0.18460    0.71000    0.95380    1.000
    H13      H        0.10320    0.76460    0.91830    1.000
    H14      H        0.17420    0.67000    0.80880    1.000
    N4       N        0.18600    0.61090    0.11830    1.000
    H15      H        0.19930    0.64820    0.25460    1.000
    H16      H        0.26000    0.55890    0.14700    1.000
    C5       C        0.68460    0.79000    0.45380    1.000
    H17      H        0.60320    0.73540    0.41830    1.000
    H18      H        0.67420    0.83000    0.30880    1.000
    N5       N        0.68600    0.88910    0.61830    1.000
    H19      H        0.69930    0.85180    0.75460    1.000
    H20      H        0.76000    0.94110    0.64700    1.000
    C6       C        0.18460    0.29000    0.45380    1.000
    H21      H        0.10320    0.23540    0.41830    1.000
    H22      H        0.17420    0.33000    0.30880    1.000
    N6       N        0.18600    0.38910    0.61830    1.000
    H23      H        0.19930    0.35180    0.75460    1.000
    H24      H        0.26000    0.44110    0.64700    1.000
    C7       C        0.31540    0.79000    0.04620    1.000
    H25      H        0.39680    0.73540    0.08170    1.000
    H26      H        0.32580    0.83000    0.19120    1.000
    N7       N        0.31400    0.88910    0.88170    1.000
    H27      H        0.30070    0.85180    0.74540    1.000
    H28      H        0.24000    0.94110    0.85300    1.000
    C8       C        0.81540    0.29000    0.04620    1.000
    H29      H        0.89680    0.23540    0.08170    1.000
    H30      H        0.82580    0.33000    0.19120    1.000
    N8       N        0.81400    0.38910    0.88170    1.000
    H31      H        0.80070    0.35180    0.74540    1.000
    H32      H        0.74000    0.44110    0.85300    1.000
    Ag1      Ag       0.50000    0.00000    0.50000    1.000
    Ag2      Ag       0.00000    0.50000    0.50000    1.000
    Ag3      Ag       0.50000    0.00000    0.00000    1.000
    Ag4      Ag       0.00000    0.50000    0.00000    1.000
