# CIF file generated by openbabel 3.1.0, see https://openbabel.org
data_I
_chemical_name_common 'QUJFUX_clean'
_cell_length_a 9.1683
_cell_length_b 9.1683
_cell_length_c 16.0239
_cell_angle_alpha 73.8979
_cell_angle_beta 73.8979
_cell_angle_gamma 72.323
_space_group_name_H-M_alt 'P 1'
_space_group_name_Hall 'P 1'
loop_
    _symmetry_equiv_pos_as_xyz
    x,y,z
loop_
    _atom_site_label
    _atom_site_type_symbol
    _atom_site_fract_x
    _atom_site_fract_y
    _atom_site_fract_z
    _atom_site_occupancy
    Cd1      Cd       0.75199    0.66863    0.15939    1.000
    Cd2      Cd       0.33137    0.24801    0.34061    1.000
    Cd3      Cd       0.24801    0.33137    0.84061    1.000
    Cd4      Cd       0.66863    0.75199    0.65939    1.000
    Cd5      Cd       0.01399    0.98601    0.25000    1.000
    Cd6      Cd       0.98601    0.01399    0.75000    1.000
    H1       H        0.63360    0.73120    0.97260    1.000
    H2       H        0.39340    0.84660    0.25830    1.000
    H3       H        0.11510    0.02890    0.02310    1.000
    H4       H        0.26880    0.36640    0.52740    1.000
    H5       H        0.15340    0.60660    0.24170    1.000
    H6       H        0.97110    0.88490    0.47690    1.000
    H7       H        0.36640    0.26880    0.02740    1.000
    H8       H        0.60660    0.15340    0.74170    1.000
    H9       H        0.88490    0.97110    0.97690    1.000
    H10      H        0.73120    0.63360    0.47260    1.000
    H11      H        0.84660    0.39340    0.75830    1.000
    H12      H        0.02890    0.11510    0.52310    1.000
    C1       C        0.52780    0.80560    0.82560    1.000
    C2       C        0.44750    0.84410    0.91440    1.000
    C3       C        0.53060    0.79040    0.98250    1.000
    C4       C        0.45750    0.82650    0.06510    1.000
    C5       C        0.38880    0.85380    0.20000    1.000
    C6       C        0.30280    0.91340    0.08080    1.000
    C7       C        0.21830    0.97010    0.01290    1.000
    C8       C        0.29210    0.93630    0.93070    1.000
    C9       C        0.19190    0.99070    0.86250    1.000
    C10      C        0.19440    0.47220    0.67440    1.000
    C11      C        0.15590    0.55250    0.58560    1.000
    C12      C        0.20960    0.46940    0.51750    1.000
    C13      C        0.17350    0.54250    0.43490    1.000
    C14      C        0.14620    0.61120    0.30000    1.000
    C15      C        0.08660    0.69720    0.41920    1.000
    C16      C        0.02990    0.78170    0.48710    1.000
    C17      C        0.06370    0.70790    0.56930    1.000
    C18      C        0.00930    0.80810    0.63750    1.000
    C19      C        0.47220    0.19440    0.17440    1.000
    C20      C        0.55250    0.15590    0.08560    1.000
    C21      C        0.46940    0.20960    0.01750    1.000
    C22      C        0.54250    0.17350    0.93490    1.000
    C23      C        0.61120    0.14620    0.80000    1.000
    C24      C        0.69720    0.08660    0.91920    1.000
    C25      C        0.78170    0.02990    0.98710    1.000
    C26      C        0.70790    0.06370    0.06930    1.000
    C27      C        0.80810    0.00930    0.13750    1.000
    C28      C        0.80560    0.52780    0.32560    1.000
    C29      C        0.84410    0.44750    0.41440    1.000
    C30      C        0.79040    0.53060    0.48250    1.000
    C31      C        0.82650    0.45750    0.56510    1.000
    C32      C        0.85380    0.38880    0.70000    1.000
    C33      C        0.91340    0.30280    0.58080    1.000
    C34      C        0.97010    0.21830    0.51290    1.000
    C35      C        0.93630    0.29210    0.43070    1.000
    C36      C        0.99070    0.19190    0.36250    1.000
    N1       N        0.51070    0.78970    0.14250    1.000
    N2       N        0.25950    0.92930    0.16810    1.000
    N3       N        0.21030    0.48930    0.35750    1.000
    N4       N        0.07070    0.74050    0.33190    1.000
    N5       N        0.48930    0.21030    0.85750    1.000
    N6       N        0.74050    0.07070    0.83190    1.000
    N7       N        0.78970    0.51070    0.64250    1.000
    N8       N        0.92930    0.25950    0.66810    1.000
    O1       O        0.64200    0.68680    0.82120    1.000
    O2       O        0.48280    0.89460    0.75730    1.000
    O3       O        0.14320    0.13480    0.83280    1.000
    O4       O        0.15330    0.88830    0.83980    1.000
    O5       O        0.31320    0.35800    0.67880    1.000
    O6       O        0.10540    0.51720    0.74270    1.000
    O7       O        0.86520    0.85680    0.66720    1.000
    O8       O        0.11170    0.84670    0.66020    1.000
    O9       O        0.35800    0.31320    0.17880    1.000
    O10      O        0.51720    0.10540    0.24270    1.000
    O11      O        0.85680    0.86520    0.16720    1.000
    O12      O        0.84670    0.11170    0.16020    1.000
    O13      O        0.68680    0.64200    0.32120    1.000
    O14      O        0.89460    0.48280    0.25730    1.000
    O15      O        0.13480    0.14320    0.33280    1.000
    O16      O        0.88830    0.15330    0.33980    1.000
