# CIF file generated by openbabel 3.1.0, see https://openbabel.org
data_I
_chemical_name_common 'DOQGUM_clean'
_cell_length_a 7.1991
_cell_length_b 10.2926
_cell_length_c 13.3838
_cell_angle_alpha 90
_cell_angle_beta 90
_cell_angle_gamma 98.898
_space_group_name_H-M_alt 'P 1'
_space_group_name_Hall 'P 1'
loop_
    _symmetry_equiv_pos_as_xyz
    x,y,z
loop_
    _atom_site_label
    _atom_site_type_symbol
    _atom_site_fract_x
    _atom_site_fract_y
    _atom_site_fract_z
    _atom_site_occupancy
    La1      La       0.15928    0.28238    0.90594    1.000
    La2      La       0.84072    0.21762    0.40594    1.000
    La3      La       0.84072    0.71762    0.09406    1.000
    La4      La       0.15928    0.78238    0.59406    1.000
    P1       P        0.78502    0.07360    0.05193    1.000
    P2       P        0.21498    0.42640    0.55193    1.000
    P3       P        0.21498    0.92640    0.94807    1.000
    P4       P        0.78502    0.57360    0.44807    1.000
    H1       H        0.59000    0.19280    0.04910    1.000
    H2       H        0.87350    0.00180    0.25590    1.000
    H3       H        0.06020    0.08710    0.14810    1.000
    H4       H        0.41000    0.30720    0.54910    1.000
    H5       H        0.12650    0.49820    0.75590    1.000
    H6       H        0.93980    0.41290    0.64810    1.000
    H7       H        0.41000    0.80720    0.95090    1.000
    H8       H        0.12650    0.99820    0.74410    1.000
    H9       H        0.93980    0.91290    0.85190    1.000
    H10      H        0.59000    0.69280    0.45090    1.000
    H11      H        0.87350    0.50180    0.24410    1.000
    H12      H        0.06020    0.58710    0.35190    1.000
    C1       C        0.94540    0.12630    0.15600    1.000
    C2       C        0.99740    0.27450    0.16290    1.000
    C3       C        0.45350    0.55480    0.97400    1.000
    C4       C        0.05460    0.37370    0.65600    1.000
    C5       C        0.00260    0.22550    0.66290    1.000
    C6       C        0.54650    0.94520    0.47400    1.000
    C7       C        0.05460    0.87370    0.84400    1.000
    C8       C        0.00260    0.72550    0.83710    1.000
    C9       C        0.54650    0.44520    0.02600    1.000
    C10      C        0.94540    0.62630    0.34400    1.000
    C11      C        0.99740    0.77450    0.33710    1.000
    C12      C        0.45350    0.05480    0.52600    1.000
    O1       O        0.60220    0.12920    0.08400    1.000
    O2       O        0.86470    0.13150    0.95524    1.000
    O3       O        0.74310    0.92680    0.05794    1.000
    O4       O        0.85040    0.07600    0.24478    1.000
    O5       O        0.07870    0.33270    0.08891    1.000
    O6       O        0.95970    0.33030    0.24278    1.000
    O7       O        0.30990    0.52070    0.92353    1.000
    O8       O        0.53260    0.67080    0.99015    1.000
    O9       O        0.39780    0.37080    0.58400    1.000
    O10      O        0.13530    0.36850    0.45524    1.000
    O11      O        0.25690    0.57320    0.55794    1.000
    O12      O        0.14960    0.42400    0.74478    1.000
    O13      O        0.92130    0.16730    0.58891    1.000
    O14      O        0.04030    0.16970    0.74278    1.000
    O15      O        0.69010    0.97930    0.42353    1.000
    O16      O        0.46740    0.82920    0.49015    1.000
    O17      O        0.39780    0.87080    0.91600    1.000
    O18      O        0.13530    0.86850    0.04476    1.000
    O19      O        0.25690    0.07320    0.94206    1.000
    O20      O        0.14960    0.92400    0.75522    1.000
    O21      O        0.92130    0.66730    0.91109    1.000
    O22      O        0.04030    0.66970    0.75722    1.000
    O23      O        0.69010    0.47930    0.07647    1.000
    O24      O        0.46740    0.32920    0.00985    1.000
    O25      O        0.60220    0.62920    0.41600    1.000
    O26      O        0.86470    0.63150    0.54476    1.000
    O27      O        0.74310    0.42680    0.44206    1.000
    O28      O        0.85040    0.57600    0.25522    1.000
    O29      O        0.07870    0.83270    0.41109    1.000
    O30      O        0.95970    0.83030    0.25722    1.000
    O31      O        0.30990    0.02070    0.57647    1.000
    O32      O        0.53260    0.17080    0.50985    1.000
