# CIF file generated by openbabel 3.1.0, see https://openbabel.org
data_I
_chemical_name_common 'image0'
_cell_length_a 15.814
_cell_length_b 15.9037
_cell_length_c 18.4974
_cell_angle_alpha 90
_cell_angle_beta 90
_cell_angle_gamma 90
_space_group_name_H-M_alt 'P 1'
_space_group_name_Hall 'P 1'
loop_
    _symmetry_equiv_pos_as_xyz
    x,y,z
loop_
    _atom_site_label
    _atom_site_type_symbol
    _atom_site_fract_x
    _atom_site_fract_y
    _atom_site_fract_z
    _atom_site_occupancy
    C1       C        0.87060    0.97730    0.54900    1.000
    H1       H        0.83810    0.98860    0.58970    1.000
    C2       C        0.93630    0.91970    0.55560    1.000
    H2       H        0.94840    0.89510    0.60010    1.000
    C3       C        0.98440    0.89900    0.49400    1.000
    C4       C        0.96490    0.94100    0.43110    1.000
    H3       H        0.99620    0.93100    0.38940    1.000
    C5       C        0.89860    0.99810    0.42970    1.000
    H4       H        0.88590    0.02460    0.38620    1.000
    C6       C        0.05010    0.83170    0.49910    1.000
    C7       C        0.11230    0.82160    0.44760    1.000
    H5       H        0.11520    0.85880    0.40880    1.000
    C8       C        0.10930    0.71130    0.55830    1.000
    H6       H        0.10750    0.67310    0.59640    1.000
    C9       C        0.17030    0.75700    0.45280    1.000
    H7       H        0.21160    0.75150    0.41730    1.000
    C10      C        0.05070    0.77510    0.55670    1.000
    H8       H        0.01160    0.78050    0.59390    1.000
    C11      C        0.63590    0.96980    0.55690    1.000
    H9       H        0.65310    0.99500    0.59990    1.000
    C12      C        0.57680    0.90580    0.55980    1.000
    H10      H        0.55590    0.88810    0.60420    1.000
    C13      C        0.54850    0.86780    0.49670    1.000
    C14      C        0.58570    0.89400    0.43270    1.000
    H11      H        0.57080    0.86880    0.38920    1.000
    C15      C        0.64530    0.95790    0.43400    1.000
    H12      H        0.66960    0.97380    0.39030    1.000
    C16      C        0.48050    0.80290    0.49850    1.000
    C17      C        0.42280    0.80080    0.55460    1.000
    H13      H        0.42700    0.83980    0.59190    1.000
    C18      C        0.35910    0.74170    0.55590    1.000
    H14      H        0.32040    0.74260    0.59370    1.000
    C19      C        0.40740    0.68370    0.45060    1.000
    H15      H        0.40340    0.64280    0.41480    1.000
    C20      C        0.47170    0.74310    0.44570    1.000
    H16      H        0.50860    0.74230    0.40650    1.000
    Cu1      Cu       0.75001    0.09919    0.49020    1.000
    N1       N        0.85180    0.01680    0.48830    1.000
    N2       N        0.35120    0.68280    0.50430    1.000
    N3       N        0.67000    0.99760    0.49290    1.000
    N4       N        0.16850    0.70180    0.50790    1.000
    C21      C        0.12940    0.47730    0.45100    1.000
    H17      H        0.16190    0.48860    0.41030    1.000
    C22      C        0.06370    0.41970    0.44440    1.000
    H18      H        0.05160    0.39510    0.39990    1.000
    C23      C        0.01560    0.39900    0.50600    1.000
    C24      C        0.03510    0.44100    0.56890    1.000
    H19      H        0.00380    0.43100    0.61060    1.000
    C25      C        0.10140    0.49810    0.57030    1.000
    H20      H        0.11410    0.52460    0.61380    1.000
    C26      C        0.94990    0.33170    0.50090    1.000
    C27      C        0.88770    0.32160    0.55240    1.000
    H21      H        0.88480    0.35880    0.59120    1.000
    C28      C        0.89070    0.21130    0.44170    1.000
    H22      H        0.89250    0.17310    0.40360    1.000
    C29      C        0.82970    0.25700    0.54720    1.000
    H23      H        0.78840    0.25150    0.58270    1.000
    C30      C        0.94930    0.27510    0.44330    1.000
    H24      H        0.98840    0.28050    0.40610    1.000
    C31      C        0.36410    0.46980    0.44310    1.000
    H25      H        0.34690    0.49500    0.40010    1.000
    C32      C        0.42320    0.40580    0.44020    1.000
    H26      H        0.44410    0.38810    0.39580    1.000
    C33      C        0.45150    0.36780    0.50330    1.000
    C34      C        0.41430    0.39400    0.56730    1.000
    H27      H        0.42920    0.36880    0.61080    1.000
    C35      C        0.35470    0.45790    0.56600    1.000
    H28      H        0.33040    0.47380    0.60970    1.000
    C36      C        0.51950    0.30290    0.50150    1.000
    C37      C        0.57720    0.30080    0.44540    1.000
    H29      H        0.57300    0.33980    0.40810    1.000
    C38      C        0.64090    0.24170    0.44410    1.000
    H30      H        0.67960    0.24260    0.40630    1.000
    C39      C        0.59260    0.18370    0.54940    1.000
    H31      H        0.59660    0.14280    0.58520    1.000
    C40      C        0.52830    0.24310    0.55430    1.000
    H32      H        0.49140    0.24230    0.59350    1.000
    Cu2      Cu       0.24999    0.59919    0.50980    1.000
    N5       N        0.14820    0.51680    0.51170    1.000
    N6       N        0.64880    0.18280    0.49570    1.000
    N7       N        0.33000    0.49760    0.50710    1.000
    N8       N        0.83150    0.20180    0.49210    1.000
    C41      C        0.62940    0.97730    0.04900    1.000
    H33      H        0.66190    0.98860    0.08970    1.000
    C42      C        0.56370    0.91970    0.05560    1.000
    H34      H        0.55160    0.89510    0.10010    1.000
    C43      C        0.51560    0.89900    0.99400    1.000
    C44      C        0.53510    0.94100    0.93110    1.000
    H35      H        0.50380    0.93100    0.88940    1.000
    C45      C        0.60140    0.99810    0.92970    1.000
    H36      H        0.61410    0.02460    0.88620    1.000
    C46      C        0.44990    0.83170    0.99910    1.000
    C47      C        0.38770    0.82160    0.94760    1.000
    H37      H        0.38480    0.85880    0.90880    1.000
    C48      C        0.39070    0.71130    0.05830    1.000
    H38      H        0.39250    0.67310    0.09640    1.000
    C49      C        0.32970    0.75700    0.95280    1.000
    H39      H        0.28840    0.75150    0.91730    1.000
    C50      C        0.44930    0.77510    0.05670    1.000
    H40      H        0.48840    0.78050    0.09390    1.000
    C51      C        0.86410    0.96980    0.05690    1.000
    H41      H        0.84690    0.99500    0.09990    1.000
    C52      C        0.92320    0.90580    0.05980    1.000
    H42      H        0.94410    0.88810    0.10420    1.000
    C53      C        0.95150    0.86780    0.99670    1.000
    C54      C        0.91430    0.89400    0.93270    1.000
    H43      H        0.92920    0.86880    0.88920    1.000
    C55      C        0.85470    0.95790    0.93400    1.000
    H44      H        0.83040    0.97380    0.89030    1.000
    C56      C        0.01950    0.80290    0.99850    1.000
    C57      C        0.07720    0.80080    0.05460    1.000
    H45      H        0.07300    0.83980    0.09190    1.000
    C58      C        0.14090    0.74170    0.05590    1.000
    H46      H        0.17960    0.74260    0.09370    1.000
    C59      C        0.09260    0.68370    0.95060    1.000
    H47      H        0.09660    0.64280    0.91480    1.000
    C60      C        0.02830    0.74310    0.94570    1.000
    H48      H        0.99140    0.74230    0.90650    1.000
    Cu3      Cu       0.74999    0.09919    0.99020    1.000
    N9       N        0.64820    0.01680    0.98830    1.000
    N10      N        0.14880    0.68280    0.00430    1.000
    N11      N        0.83000    0.99760    0.99290    1.000
    N12      N        0.33150    0.70180    0.00790    1.000
    C61      C        0.37060    0.47730    0.95100    1.000
    H49      H        0.33810    0.48860    0.91030    1.000
    C62      C        0.43630    0.41970    0.94440    1.000
    H50      H        0.44840    0.39510    0.89990    1.000
    C63      C        0.48440    0.39900    0.00600    1.000
    C64      C        0.46490    0.44100    0.06890    1.000
    H51      H        0.49620    0.43100    0.11060    1.000
    C65      C        0.39860    0.49810    0.07030    1.000
    H52      H        0.38590    0.52460    0.11380    1.000
    C66      C        0.55010    0.33170    0.00090    1.000
    C67      C        0.61230    0.32160    0.05240    1.000
    H53      H        0.61520    0.35880    0.09120    1.000
    C68      C        0.60930    0.21130    0.94170    1.000
    H54      H        0.60750    0.17310    0.90360    1.000
    C69      C        0.67030    0.25700    0.04720    1.000
    H55      H        0.71160    0.25150    0.08270    1.000
    C70      C        0.55070    0.27510    0.94330    1.000
    H56      H        0.51160    0.28050    0.90610    1.000
    C71      C        0.13590    0.46980    0.94310    1.000
    H57      H        0.15310    0.49500    0.90010    1.000
    C72      C        0.07680    0.40580    0.94020    1.000
    H58      H        0.05590    0.38810    0.89580    1.000
    C73      C        0.04850    0.36780    0.00330    1.000
    C74      C        0.08570    0.39400    0.06730    1.000
    H59      H        0.07080    0.36880    0.11080    1.000
    C75      C        0.14530    0.45790    0.06600    1.000
    H60      H        0.16960    0.47380    0.10970    1.000
    C76      C        0.98050    0.30290    0.00150    1.000
    C77      C        0.92280    0.30080    0.94540    1.000
    H61      H        0.92700    0.33980    0.90810    1.000
    C78      C        0.85910    0.24170    0.94410    1.000
    H62      H        0.82040    0.24260    0.90630    1.000
    C79      C        0.90740    0.18370    0.04940    1.000
    H63      H        0.90340    0.14280    0.08520    1.000
    C80      C        0.97170    0.24310    0.05430    1.000
    H64      H        0.00860    0.24230    0.09350    1.000
    Cu4      Cu       0.25001    0.59919    0.00980    1.000
    N13      N        0.35180    0.51680    0.01170    1.000
    N14      N        0.85120    0.18280    0.99570    1.000
    N15      N        0.17000    0.49760    0.00710    1.000
    N16      N        0.66850    0.20180    0.99210    1.000
    C81      C        0.71150    0.11650    0.17180    1.000
    C82      C        0.70980    0.11820    0.31140    1.000
    C83      C        0.74610    0.16040    0.24270    1.000
    H65      H        0.73380    0.22080    0.24230    1.000
    C84      C        0.84630    0.14390    0.24120    1.000
    H66      H        0.86900    0.16260    0.19580    1.000
    H67      H        0.85710    0.08480    0.24690    1.000
    H68      H        0.87270    0.17430    0.27990    1.000
    C85      C        0.39940    0.03630    0.16720    1.000
    H69      H        0.39130    0.01220    0.21240    1.000
    C86      C        0.34940    0.01000    0.11060    1.000
    H70      H        0.30940    0.96780    0.11760    1.000
    C87      C        0.35930    0.04710    0.04280    1.000
    C88      C        0.41910    0.10910    0.03600    1.000
    H71      H        0.42650    0.13670    0.99210    1.000
    C89      C        0.46850    0.13030    0.09570    1.000
    H72      H        0.50990    0.17120    0.08980    1.000
    C90      C        0.30760    0.01720    0.97960    1.000
    C91      C        0.23630    0.96670    0.98760    1.000
    H73      H        0.21850    0.95160    0.03380    1.000
    C92      C        0.19320    0.93960    0.93050    1.000
    H74      H        0.14550    0.90680    0.93890    1.000
    C93      C        0.27990    0.00390    0.85430    1.000
    H75      H        0.29520    0.01810    0.80730    1.000
    C94      C        0.32860    0.03450    0.90960    1.000
    H76      H        0.37590    0.06710    0.89950    1.000
    C95      C        0.46990    0.09390    0.38070    1.000
    H77      H        0.51350    0.05520    0.38620    1.000
    C96      C        0.41990    0.11230    0.44120    1.000
    H78      H        0.42980    0.08540    0.48500    1.000
    C97      C        0.35520    0.17100    0.43510    1.000
    C98      C        0.34280    0.20540    0.36630    1.000
    H79      H        0.29950    0.24390    0.35850    1.000
    C99      C        0.39550    0.18190    0.30990    1.000
    H80      H        0.38560    0.20530    0.26460    1.000
    C100     C        0.30680    0.19860    0.49830    1.000
    C101     C        0.32120    0.16650    0.56550    1.000
    H81      H        0.36090    0.12410    0.57200    1.000
    C102     C        0.27610    0.19750    0.62440    1.000
    H82      H        0.28620    0.17350    0.66940    1.000
    C103     C        0.20610    0.28920    0.55370    1.000
    H83      H        0.16720    0.33270    0.54860    1.000
    C104     C        0.24500    0.26080    0.49320    1.000
    H84      H        0.23050    0.28270    0.44830    1.000
    Cu5      Cu       0.54696    0.11334    0.23956    1.000
    N17      N        0.45990    0.09590    0.15960    1.000
    N18      N        0.21340    0.95610    0.86270    1.000
    N19      N        0.45880    0.12810    0.31650    1.000
    N20      N        0.21960    0.25920    0.62050    1.000
    O1       O        0.75820    0.10520    0.11935    1.000
    O2       O        0.63190    0.11290    0.16630    1.000
    O3       O        0.75620    0.10550    0.36448    1.000
    O4       O        0.63070    0.11730    0.31602    1.000
    C105     C        0.75680    0.12790    0.24190    1.000
    C106     C        0.79980    0.21250    0.24140    1.000
    H85      H        0.80210    0.08580    0.24270    1.000
    H86      H        0.82230    0.22340    0.19410    1.000
    H87      H        0.84500    0.21260    0.27610    1.000
    H88      H        0.75960    0.25540    0.25370    1.000
    C107     C        0.28850    0.61650    0.82820    1.000
    C108     C        0.29020    0.61820    0.68860    1.000
    C109     C        0.25390    0.66040    0.75730    1.000
    H89      H        0.26620    0.72080    0.75770    1.000
    C110     C        0.15370    0.64390    0.75880    1.000
    H90      H        0.13100    0.66260    0.80420    1.000
    H91      H        0.14290    0.58480    0.75310    1.000
    H92      H        0.12730    0.67430    0.72010    1.000
    C111     C        0.60060    0.53630    0.83280    1.000
    H93      H        0.60870    0.51220    0.78760    1.000
    C112     C        0.65060    0.51000    0.88940    1.000
    H94      H        0.69060    0.46780    0.88240    1.000
    C113     C        0.64070    0.54710    0.95720    1.000
    C114     C        0.58090    0.60910    0.96400    1.000
    H95      H        0.57350    0.63670    0.00790    1.000
    C115     C        0.53150    0.63030    0.90430    1.000
    H96      H        0.49010    0.67120    0.91020    1.000
    C116     C        0.69240    0.51720    0.02040    1.000
    C117     C        0.76370    0.46670    0.01240    1.000
    H97      H        0.78150    0.45160    0.96620    1.000
    C118     C        0.80680    0.43960    0.06950    1.000
    H98      H        0.85450    0.40680    0.06110    1.000
    C119     C        0.72010    0.50390    0.14570    1.000
    H99      H        0.70480    0.51810    0.19270    1.000
    C120     C        0.67140    0.53450    0.09040    1.000
    H100     H        0.62410    0.56710    0.10050    1.000
    C121     C        0.53010    0.59390    0.61930    1.000
    H101     H        0.48650    0.55520    0.61380    1.000
    C122     C        0.58010    0.61230    0.55880    1.000
    H102     H        0.57020    0.58540    0.51500    1.000
    C123     C        0.64480    0.67100    0.56490    1.000
    C124     C        0.65720    0.70540    0.63370    1.000
    H103     H        0.70050    0.74390    0.64150    1.000
    C125     C        0.60450    0.68190    0.69010    1.000
    H104     H        0.61440    0.70530    0.73540    1.000
    C126     C        0.69320    0.69860    0.50170    1.000
    C127     C        0.67880    0.66650    0.43450    1.000
    H105     H        0.63910    0.62410    0.42800    1.000
    C128     C        0.72390    0.69750    0.37560    1.000
    H106     H        0.71380    0.67350    0.33060    1.000
    C129     C        0.79390    0.78920    0.44630    1.000
    H107     H        0.83280    0.83270    0.45140    1.000
    C130     C        0.75500    0.76080    0.50680    1.000
    H108     H        0.76950    0.78270    0.55170    1.000
    Cu6      Cu       0.45304    0.61334    0.76044    1.000
    N21      N        0.54010    0.59590    0.84040    1.000
    N22      N        0.78660    0.45610    0.13730    1.000
    N23      N        0.54120    0.62810    0.68350    1.000
    N24      N        0.78040    0.75920    0.37950    1.000
    O5       O        0.24180    0.60520    0.88065    1.000
    O6       O        0.36810    0.61290    0.83370    1.000
    O7       O        0.24380    0.60550    0.63552    1.000
    O8       O        0.36930    0.61730    0.68398    1.000
    C131     C        0.24320    0.62790    0.75810    1.000
    C132     C        0.20020    0.71250    0.75860    1.000
    H109     H        0.19790    0.58580    0.75730    1.000
    H110     H        0.17770    0.72340    0.80590    1.000
    H111     H        0.15500    0.71260    0.72390    1.000
    H112     H        0.24040    0.75540    0.74630    1.000
    C133     C        0.78850    0.11650    0.67180    1.000
    C134     C        0.79020    0.11820    0.81140    1.000
    C135     C        0.75390    0.16040    0.74270    1.000
    H113     H        0.76620    0.22080    0.74230    1.000
    C136     C        0.65370    0.14390    0.74120    1.000
    H114     H        0.63100    0.16260    0.69580    1.000
    H115     H        0.64290    0.08480    0.74690    1.000
    H116     H        0.62730    0.17430    0.77990    1.000
    C137     C        0.10060    0.03630    0.66720    1.000
    H117     H        0.10870    0.01220    0.71240    1.000
    C138     C        0.15060    0.01000    0.61060    1.000
    H118     H        0.19060    0.96780    0.61760    1.000
    C139     C        0.14070    0.04710    0.54280    1.000
    C140     C        0.08090    0.10910    0.53600    1.000
    H119     H        0.07350    0.13670    0.49210    1.000
    C141     C        0.03150    0.13030    0.59570    1.000
    H120     H        0.99010    0.17120    0.58980    1.000
    C142     C        0.19240    0.01720    0.47960    1.000
    C143     C        0.26370    0.96670    0.48760    1.000
    H121     H        0.28150    0.95160    0.53380    1.000
    C144     C        0.30680    0.93960    0.43050    1.000
    H122     H        0.35450    0.90680    0.43890    1.000
    C145     C        0.22010    0.00390    0.35430    1.000
    H123     H        0.20480    0.01810    0.30730    1.000
    C146     C        0.17140    0.03450    0.40960    1.000
    H124     H        0.12410    0.06710    0.39950    1.000
    C147     C        0.03010    0.09390    0.88070    1.000
    H125     H        0.98650    0.05520    0.88620    1.000
    C148     C        0.08010    0.11230    0.94120    1.000
    H126     H        0.07020    0.08540    0.98500    1.000
    C149     C        0.14480    0.17100    0.93510    1.000
    C150     C        0.15720    0.20540    0.86630    1.000
    H127     H        0.20050    0.24390    0.85850    1.000
    C151     C        0.10450    0.18190    0.80990    1.000
    H128     H        0.11440    0.20530    0.76460    1.000
    C152     C        0.19320    0.19860    0.99830    1.000
    C153     C        0.17880    0.16650    0.06550    1.000
    H129     H        0.13910    0.12410    0.07200    1.000
    C154     C        0.22390    0.19750    0.12440    1.000
    H130     H        0.21380    0.17350    0.16940    1.000
    C155     C        0.29390    0.28920    0.05370    1.000
    H131     H        0.33280    0.33270    0.04860    1.000
    C156     C        0.25500    0.26080    0.99320    1.000
    H132     H        0.26950    0.28270    0.94830    1.000
    Cu7      Cu       0.95304    0.11334    0.73956    1.000
    N25      N        0.04010    0.09590    0.65960    1.000
    N26      N        0.28660    0.95610    0.36270    1.000
    N27      N        0.04120    0.12810    0.81650    1.000
    N28      N        0.28040    0.25920    0.12050    1.000
    O9       O        0.74180    0.10520    0.61935    1.000
    O10      O        0.86810    0.11290    0.66630    1.000
    O11      O        0.74380    0.10550    0.86448    1.000
    O12      O        0.86930    0.11730    0.81602    1.000
    C157     C        0.74320    0.12790    0.74190    1.000
    C158     C        0.70020    0.21250    0.74140    1.000
    H133     H        0.69790    0.08580    0.74270    1.000
    H134     H        0.67770    0.22340    0.69410    1.000
    H135     H        0.65500    0.21260    0.77610    1.000
    H136     H        0.74040    0.25540    0.75370    1.000
    C159     C        0.21150    0.61650    0.32820    1.000
    C160     C        0.20980    0.61820    0.18860    1.000
    C161     C        0.24610    0.66040    0.25730    1.000
    H137     H        0.23380    0.72080    0.25770    1.000
    C162     C        0.34630    0.64390    0.25880    1.000
    H138     H        0.36900    0.66260    0.30420    1.000
    H139     H        0.35710    0.58480    0.25310    1.000
    H140     H        0.37270    0.67430    0.22010    1.000
    C163     C        0.89940    0.53630    0.33280    1.000
    H141     H        0.89130    0.51220    0.28760    1.000
    C164     C        0.84940    0.51000    0.38940    1.000
    H142     H        0.80940    0.46780    0.38240    1.000
    C165     C        0.85930    0.54710    0.45720    1.000
    C166     C        0.91910    0.60910    0.46400    1.000
    H143     H        0.92650    0.63670    0.50790    1.000
    C167     C        0.96850    0.63030    0.40430    1.000
    H144     H        0.00990    0.67120    0.41020    1.000
    C168     C        0.80760    0.51720    0.52040    1.000
    C169     C        0.73630    0.46670    0.51240    1.000
    H145     H        0.71850    0.45160    0.46620    1.000
    C170     C        0.69320    0.43960    0.56950    1.000
    H146     H        0.64550    0.40680    0.56110    1.000
    C171     C        0.77990    0.50390    0.64570    1.000
    H147     H        0.79520    0.51810    0.69270    1.000
    C172     C        0.82860    0.53450    0.59040    1.000
    H148     H        0.87590    0.56710    0.60050    1.000
    C173     C        0.96990    0.59390    0.11930    1.000
    H149     H        0.01350    0.55520    0.11380    1.000
    C174     C        0.91990    0.61230    0.05880    1.000
    H150     H        0.92980    0.58540    0.01500    1.000
    C175     C        0.85520    0.67100    0.06490    1.000
    C176     C        0.84280    0.70540    0.13370    1.000
    H151     H        0.79950    0.74390    0.14150    1.000
    C177     C        0.89550    0.68190    0.19010    1.000
    H152     H        0.88560    0.70530    0.23540    1.000
    C178     C        0.80680    0.69860    0.00170    1.000
    C179     C        0.82120    0.66650    0.93450    1.000
    H153     H        0.86090    0.62410    0.92800    1.000
    C180     C        0.77610    0.69750    0.87560    1.000
    H154     H        0.78620    0.67350    0.83060    1.000
    C181     C        0.70610    0.78920    0.94630    1.000
    H155     H        0.66720    0.83270    0.95140    1.000
    C182     C        0.74500    0.76080    0.00680    1.000
    H156     H        0.73050    0.78270    0.05170    1.000
    Cu8      Cu       0.04696    0.61334    0.26044    1.000
    N29      N        0.95990    0.59590    0.34040    1.000
    N30      N        0.71340    0.45610    0.63730    1.000
    N31      N        0.95880    0.62810    0.18350    1.000
    N32      N        0.71960    0.75920    0.87950    1.000
    O13      O        0.25820    0.60520    0.38065    1.000
    O14      O        0.13190    0.61290    0.33370    1.000
    O15      O        0.25620    0.60550    0.13552    1.000
    O16      O        0.13070    0.61730    0.18398    1.000
    C183     C        0.25680    0.62790    0.25810    1.000
    C184     C        0.29980    0.71250    0.25860    1.000
    H157     H        0.30210    0.58580    0.25730    1.000
    H158     H        0.32230    0.72340    0.30590    1.000
    H159     H        0.34500    0.71260    0.22390    1.000
    H160     H        0.25960    0.75540    0.24630    1.000
