# CIF file generated by openbabel 3.1.0, see https://openbabel.org
data_I
_chemical_name_common 'RIWSUM_clean'
_cell_length_a 14.0024
_cell_length_b 16.7039
_cell_length_c 26.8224
_cell_angle_alpha 91.165
_cell_angle_beta 90
_cell_angle_gamma 90
_space_group_name_H-M_alt 'P 1'
_space_group_name_Hall 'P 1'
loop_
    _symmetry_equiv_pos_as_xyz
    x,y,z
loop_
    _atom_site_label
    _atom_site_type_symbol
    _atom_site_fract_x
    _atom_site_fract_y
    _atom_site_fract_z
    _atom_site_occupancy
    Cd1      Cd       0.44763    0.55984    0.25491    1.000
    Cd2      Cd       0.69048    0.25028    0.49870    1.000
    Cd3      Cd       0.44921    0.94248    0.75294    1.000
    Cd4      Cd       0.19826    0.25118    0.99758    1.000
    H1       H        0.90040    0.27910    0.32870    1.000
    H2       H        0.13750    0.55900    0.31930    1.000
    H3       H        0.98540    0.52240    0.34480    1.000
    H4       H        0.02260    0.30190    0.28350    1.000
    H5       H        0.18130    0.33550    0.26450    1.000
    H6       H        0.71710    0.34030    0.33290    1.000
    H7       H        0.73870    0.22580    0.28170    1.000
    H8       H        0.66870    0.20290    0.32630    1.000
    H9       H        0.77840    0.17620    0.32770    1.000
    H10      H        0.99560    0.21110    0.82710    1.000
    H11      H        0.71810    0.15050    0.76570    1.000
    H12      H        0.87460    0.18660    0.78540    1.000
    H13      H        0.93070    0.95950    0.82570    1.000
    H14      H        0.77550    0.92170    0.80330    1.000
    H15      H        0.18300    0.15930    0.82990    1.000
    H16      H        0.14330    0.27660    0.78510    1.000
    H17      H        0.22360    0.29450    0.82630    1.000
    H18      H        0.11530    0.32070    0.83650    1.000
    H19      H        0.98410    0.28310    0.16710    1.000
    H20      H        0.76670    0.57650    0.19330    1.000
    H21      H        0.91750    0.53560    0.16660    1.000
    H22      H        0.85660    0.30820    0.20520    1.000
    H23      H        0.70390    0.34810    0.22940    1.000
    H24      H        0.16960    0.33880    0.16630    1.000
    H25      H        0.13190    0.21840    0.20830    1.000
    H26      H        0.21510    0.20470    0.16810    1.000
    H27      H        0.10860    0.17600    0.15560    1.000
    H28      H        0.44860    0.74890    0.42300    1.000
    H29      H        0.75050    0.98530    0.44310    1.000
    H30      H        0.73150    0.85060    0.42070    1.000
    H31      H        0.45000    0.86600    0.45280    1.000
    H32      H        0.46730    0.00120    0.47280    1.000
    H33      H        0.55260    0.60860    0.41880    1.000
    H34      H        0.41050    0.61460    0.46870    1.000
    H35      H        0.40920    0.54150    0.42920    1.000
    H36      H        0.34890    0.62070    0.41870    1.000
    H37      H        0.44680    0.74940    0.57940    1.000
    H38      H        0.75060    0.51730    0.54790    1.000
    H39      H        0.73110    0.64930    0.57530    1.000
    H40      H        0.44510    0.62660    0.56280    1.000
    H41      H        0.46410    0.49250    0.53840    1.000
    H42      H        0.55170    0.88680    0.58930    1.000
    H43      H        0.40800    0.88300    0.54000    1.000
    H44      H        0.40900    0.95600    0.57960    1.000
    H45      H        0.34730    0.87760    0.59030    1.000
    H46      H        0.43940    0.75860    0.08570    1.000
    H47      H        0.42580    0.01480    0.04570    1.000
    H48      H        0.44440    0.88270    0.07240    1.000
    H49      H        0.15640    0.86060    0.07940    1.000
    H50      H        0.13880    0.98930    0.04950    1.000
    H51      H        0.33030    0.62430    0.09750    1.000
    H52      H        0.46730    0.62550    0.04190    1.000
    H53      H        0.46400    0.55040    0.07800    1.000
    H54      H        0.53400    0.62390    0.09030    1.000
    H55      H        0.43740    0.74520    0.91130    1.000
    H56      H        0.41880    0.49500    0.96940    1.000
    H57      H        0.43970    0.63070    0.95050    1.000
    H58      H        0.15680    0.64840    0.92070    1.000
    H59      H        0.13690    0.51360    0.93790    1.000
    H60      H        0.33190    0.88550    0.91230    1.000
    H61      H        0.46220    0.88900    0.96940    1.000
    H62      H        0.47100    0.95790    0.92900    1.000
    H63      H        0.53490    0.87870    0.92370    1.000
    C1       C        0.27360    0.47620    0.27541    1.000
    C2       C        0.17400    0.45160    0.28936    1.000
    C3       C        0.11520    0.50610    0.31280    1.000
    C4       C        0.02400    0.48480    0.32700    1.000
    C5       C        0.98820    0.40930    0.31560    1.000
    C6       C        0.04640    0.35380    0.29166    1.000
    C7       C        0.14030    0.37430    0.27953    1.000
    C8       C        0.88680    0.39300    0.33096    1.000
    C9       C        0.75980    0.29700    0.34520    1.000
    C10      C        0.73400    0.21830    0.31774    1.000
    C11      C        0.74060    0.28610    0.40081    1.000
    C12      C        0.62910    0.00890    0.77260    1.000
    C13      C        0.73060    0.03240    0.78329    1.000
    C14      C        0.76110    0.11140    0.77776    1.000
    C15      C        0.85410    0.13300    0.78982    1.000
    C16      C        0.91730    0.07700    0.80825    1.000
    C17      C        0.88760    0.99820    0.81336    1.000
    C18      C        0.79490    0.97590    0.80040    1.000
    C19      C        0.01640    0.09710    0.82559    1.000
    C20      C        0.13690    0.19950    0.84398    1.000
    C21      C        0.15650    0.27990    0.82093    1.000
    C22      C        0.15480    0.20950    0.90001    1.000
    C23      C        0.62270    0.49460    0.23074    1.000
    C24      C        0.72030    0.46660    0.21449    1.000
    C25      C        0.78450    0.52180    0.19540    1.000
    C26      C        0.87400    0.49750    0.17950    1.000
    C27      C        0.90060    0.41780    0.18218    1.000
    C28      C        0.83770    0.36250    0.20201    1.000
    C29      C        0.74760    0.38650    0.21712    1.000
    C30      C        0.00050    0.39730    0.16460    1.000
    C31      C        0.12580    0.29800    0.15079    1.000
    C32      C        0.14730    0.21710    0.17263    1.000
    C33      C        0.14650    0.29170    0.09509    1.000
    C34      C        0.62550    0.09400    0.47347    1.000
    C35      C        0.61140    0.00680    0.46041    1.000
    C36      C        0.68920    0.96120    0.44492    1.000
    C37      C        0.67810    0.88100    0.43205    1.000
    C38      C        0.58880    0.84470    0.43571    1.000
    C39      C        0.51120    0.89030    0.45076    1.000
    C40      C        0.52140    0.97050    0.46285    1.000
    C41      C        0.58470    0.75770    0.42138    1.000
    C42      C        0.49350    0.63550    0.40658    1.000
    C43      C        0.40790    0.59990    0.43317    1.000
    C44      C        0.48370    0.61760    0.35051    1.000
    C45      C        0.62400    0.40530    0.52556    1.000
    C46      C        0.60920    0.49190    0.54061    1.000
    C47      C        0.68820    0.53900    0.55154    1.000
    C48      C        0.67650    0.61750    0.56766    1.000
    C49      C        0.58570    0.65050    0.57277    1.000
    C50      C        0.50730    0.60410    0.56068    1.000
    C51      C        0.51860    0.52450    0.54547    1.000
    C52      C        0.58080    0.73510    0.59263    1.000
    C53      C        0.49250    0.86030    0.60178    1.000
    C54      C        0.40640    0.89760    0.57554    1.000
    C55      C        0.48360    0.87940    0.65774    1.000
    C56      C        0.26560    0.09850    0.02713    1.000
    C57      C        0.28050    0.01470    0.04456    1.000
    C58      C        0.37100    0.98300    0.05199    1.000
    C59      C        0.38220    0.90460    0.06871    1.000
    C60      C        0.30250    0.85910    0.07980    1.000
    C61      C        0.21150    0.89160    0.07229    1.000
    C62      C        0.20100    0.96820    0.05469    1.000
    C63      C        0.30620    0.77620    0.09976    1.000
    C64      C        0.39240    0.64960    0.10731    1.000
    C65      C        0.47160    0.60870    0.07662    1.000
    C66      C        0.41000    0.63220    0.16226    1.000
    C67      C        0.25790    0.40630    0.97113    1.000
    C68      C        0.27480    0.49200    0.95700    1.000
    C69      C        0.36550    0.52640    0.95992    1.000
    C70      C        0.37790    0.60730    0.94896    1.000
    C71      C        0.29990    0.65320    0.93579    1.000
    C72      C        0.20990    0.61750    0.93109    1.000
    C73      C        0.19810    0.53760    0.94146    1.000
    C74      C        0.30450    0.74150    0.92675    1.000
    C75      C        0.39380    0.85960    0.90278    1.000
    C76      C        0.47260    0.89990    0.93404    1.000
    C77      C        0.41040    0.87460    0.84724    1.000
    N1       N        0.85850    0.31772    0.33382    1.000
    N2       N        0.03990    0.17438    0.83123    1.000
    N3       N        0.02680    0.32070    0.16202    1.000
    N4       N        0.50120    0.72096    0.41809    1.000
    N5       N        0.49860    0.77508    0.58933    1.000
    N6       N        0.38730    0.73420    0.09572    1.000
    N7       N        0.38590    0.77521    0.91360    1.000
    O1       O        0.28822    0.54973    0.26920    1.000
    O2       O        0.33808    0.42447    0.27098    1.000
    O3       O        0.83270    0.45074    0.34097    1.000
    O4       O        0.65362    0.28078    0.41446    1.000
    O5       O        0.80703    0.27919    0.43153    1.000
    O6       O        0.56516    0.06206    0.77020    1.000
    O7       O        0.61085    0.93567    0.76682    1.000
    O8       O        0.07383    0.04316    0.83559    1.000
    O9       O        0.24131    0.21700    0.91407    1.000
    O10      O        0.08651    0.21619    0.92999    1.000
    O11      O        0.55543    0.44458    0.23420    1.000
    O12      O        0.61165    0.56734    0.24000    1.000
    O13      O        0.05574    0.45170    0.15257    1.000
    O14      O        0.23381    0.29004    0.08211    1.000
    O15      O        0.08059    0.28175    0.06418    1.000
    O16      O        0.70890    0.11639    0.48462    1.000
    O17      O        0.55570    0.14090    0.47355    1.000
    O18      O        0.65850    0.72060    0.41170    1.000
    O19      O        0.47063    0.67045    0.31969    1.000
    O20      O        0.48480    0.54385    0.33792    1.000
    O21      O        0.70650    0.38427    0.51234    1.000
    O22      O        0.55520    0.35730    0.52682    1.000
    O23      O        0.65353    0.76734    0.61104    1.000
    O24      O        0.46410    0.82686    0.68819    1.000
    O25      O        0.49164    0.95278    0.67034    1.000
    O26      O        0.18327    0.11874    0.01403    1.000
    O27      O        0.33545    0.14644    0.02632    1.000
    O28      O        0.23320    0.74614    0.11894    1.000
    O29      O        0.40570    0.55847    0.17350    1.000
    O30      O        0.42960    0.68529    0.19354    1.000
    O31      O        0.32662    0.35813    0.97235    1.000
    O32      O        0.17404    0.38610    0.98210    1.000
    O33      O        0.22990    0.78266    0.93268    1.000
    O34      O        0.41740    0.94747    0.83524    1.000
    O35      O        0.41882    0.81929    0.81595    1.000
    Cd5      Cd       0.94763    0.44016    0.74509    1.000
    Cd6      Cd       0.19048    0.74972    0.50130    1.000
    Cd7      Cd       0.94921    0.05752    0.24706    1.000
    Cd8      Cd       0.69826    0.74882    0.00242    1.000
    H64      H        0.40040    0.72090    0.67130    1.000
    H65      H        0.63750    0.44100    0.68070    1.000
    H66      H        0.48540    0.47760    0.65520    1.000
    H67      H        0.52260    0.69810    0.71650    1.000
    H68      H        0.68130    0.66450    0.73550    1.000
    H69      H        0.21710    0.65970    0.66710    1.000
    H70      H        0.23870    0.77420    0.71830    1.000
    H71      H        0.16870    0.79710    0.67370    1.000
    H72      H        0.27840    0.82380    0.67230    1.000
    H73      H        0.49560    0.78890    0.17290    1.000
    H74      H        0.21810    0.84950    0.23430    1.000
    H75      H        0.37460    0.81340    0.21460    1.000
    H76      H        0.43070    0.04050    0.17430    1.000
    H77      H        0.27550    0.07830    0.19670    1.000
    H78      H        0.68300    0.84070    0.17010    1.000
    H79      H        0.64330    0.72340    0.21490    1.000
    H80      H        0.72360    0.70550    0.17370    1.000
    H81      H        0.61530    0.67930    0.16350    1.000
    H82      H        0.48410    0.71690    0.83290    1.000
    H83      H        0.26670    0.42350    0.80670    1.000
    H84      H        0.41750    0.46440    0.83340    1.000
    H85      H        0.35660    0.69180    0.79480    1.000
    H86      H        0.20390    0.65190    0.77060    1.000
    H87      H        0.66960    0.66120    0.83370    1.000
    H88      H        0.63190    0.78160    0.79170    1.000
    H89      H        0.71510    0.79530    0.83190    1.000
    H90      H        0.60860    0.82400    0.84440    1.000
    H91      H        0.94860    0.25110    0.57700    1.000
    H92      H        0.25050    0.01470    0.55690    1.000
    H93      H        0.23150    0.14940    0.57930    1.000
    H94      H        0.95000    0.13400    0.54720    1.000
    H95      H        0.96730    0.99880    0.52720    1.000
    H96      H        0.05260    0.39140    0.58120    1.000
    H97      H        0.91050    0.38540    0.53130    1.000
    H98      H        0.90920    0.45850    0.57080    1.000
    H99      H        0.84890    0.37930    0.58130    1.000
    H100     H        0.94680    0.25060    0.42060    1.000
    H101     H        0.25060    0.48270    0.45210    1.000
    H102     H        0.23110    0.35070    0.42470    1.000
    H103     H        0.94510    0.37340    0.43720    1.000
    H104     H        0.96410    0.50750    0.46160    1.000
    H105     H        0.05170    0.11320    0.41070    1.000
    H106     H        0.90800    0.11700    0.46000    1.000
    H107     H        0.90900    0.04400    0.42040    1.000
    H108     H        0.84730    0.12240    0.40970    1.000
    H109     H        0.93940    0.24140    0.91430    1.000
    H110     H        0.92580    0.98520    0.95430    1.000
    H111     H        0.94440    0.11730    0.92760    1.000
    H112     H        0.65640    0.13940    0.92060    1.000
    H113     H        0.63880    0.01070    0.95050    1.000
    H114     H        0.83030    0.37570    0.90250    1.000
    H115     H        0.96730    0.37450    0.95810    1.000
    H116     H        0.96400    0.44960    0.92200    1.000
    H117     H        0.03400    0.37610    0.90970    1.000
    H118     H        0.93740    0.25480    0.08870    1.000
    H119     H        0.91880    0.50500    0.03060    1.000
    H120     H        0.93970    0.36930    0.04950    1.000
    H121     H        0.65680    0.35160    0.07930    1.000
    H122     H        0.63690    0.48640    0.06210    1.000
    H123     H        0.83190    0.11450    0.08770    1.000
    H124     H        0.96220    0.11100    0.03060    1.000
    H125     H        0.97100    0.04210    0.07100    1.000
    H126     H        0.03490    0.12130    0.07630    1.000
    C78      C        0.77360    0.52380    0.72459    1.000
    C79      C        0.67400    0.54840    0.71064    1.000
    C80      C        0.61520    0.49390    0.68720    1.000
    C81      C        0.52400    0.51520    0.67300    1.000
    C82      C        0.48820    0.59070    0.68440    1.000
    C83      C        0.54640    0.64620    0.70834    1.000
    C84      C        0.64030    0.62570    0.72047    1.000
    C85      C        0.38680    0.60700    0.66904    1.000
    C86      C        0.25980    0.70300    0.65480    1.000
    C87      C        0.23400    0.78170    0.68226    1.000
    C88      C        0.24060    0.71390    0.59919    1.000
    C89      C        0.12910    0.99110    0.22740    1.000
    C90      C        0.23060    0.96760    0.21671    1.000
    C91      C        0.26110    0.88860    0.22224    1.000
    C92      C        0.35410    0.86700    0.21018    1.000
    C93      C        0.41730    0.92300    0.19175    1.000
    C94      C        0.38760    0.00180    0.18664    1.000
    C95      C        0.29490    0.02410    0.19960    1.000
    C96      C        0.51640    0.90290    0.17441    1.000
    C97      C        0.63690    0.80050    0.15602    1.000
    C98      C        0.65650    0.72010    0.17907    1.000
    C99      C        0.65480    0.79050    0.09999    1.000
    C100     C        0.12270    0.50540    0.76926    1.000
    C101     C        0.22030    0.53340    0.78551    1.000
    C102     C        0.28450    0.47820    0.80460    1.000
    C103     C        0.37400    0.50250    0.82050    1.000
    C104     C        0.40060    0.58220    0.81782    1.000
    C105     C        0.33770    0.63750    0.79799    1.000
    C106     C        0.24760    0.61350    0.78288    1.000
    C107     C        0.50050    0.60270    0.83540    1.000
    C108     C        0.62580    0.70200    0.84921    1.000
    C109     C        0.64730    0.78290    0.82737    1.000
    C110     C        0.64650    0.70830    0.90491    1.000
    C111     C        0.12550    0.90600    0.52653    1.000
    C112     C        0.11140    0.99320    0.53959    1.000
    C113     C        0.18920    0.03880    0.55508    1.000
    C114     C        0.17810    0.11900    0.56795    1.000
    C115     C        0.08880    0.15530    0.56429    1.000
    C116     C        0.01120    0.10970    0.54924    1.000
    C117     C        0.02140    0.02950    0.53715    1.000
    C118     C        0.08470    0.24230    0.57862    1.000
    C119     C        0.99350    0.36450    0.59342    1.000
    C120     C        0.90790    0.40010    0.56683    1.000
    C121     C        0.98370    0.38240    0.64949    1.000
    C122     C        0.12400    0.59470    0.47444    1.000
    C123     C        0.10920    0.50810    0.45939    1.000
    C124     C        0.18820    0.46100    0.44846    1.000
    C125     C        0.17650    0.38250    0.43234    1.000
    C126     C        0.08570    0.34950    0.42723    1.000
    C127     C        0.00730    0.39590    0.43932    1.000
    C128     C        0.01860    0.47550    0.45453    1.000
    C129     C        0.08080    0.26490    0.40737    1.000
    C130     C        0.99250    0.13970    0.39822    1.000
    C131     C        0.90640    0.10240    0.42446    1.000
    C132     C        0.98360    0.12060    0.34226    1.000
    C133     C        0.76560    0.90150    0.97287    1.000
    C134     C        0.78050    0.98530    0.95544    1.000
    C135     C        0.87100    0.01700    0.94801    1.000
    C136     C        0.88220    0.09540    0.93129    1.000
    C137     C        0.80250    0.14090    0.92020    1.000
    C138     C        0.71150    0.10840    0.92771    1.000
    C139     C        0.70100    0.03180    0.94531    1.000
    C140     C        0.80620    0.22380    0.90024    1.000
    C141     C        0.89240    0.35040    0.89269    1.000
    C142     C        0.97160    0.39130    0.92338    1.000
    C143     C        0.91000    0.36780    0.83774    1.000
    C144     C        0.75790    0.59370    0.02887    1.000
    C145     C        0.77480    0.50800    0.04300    1.000
    C146     C        0.86550    0.47360    0.04008    1.000
    C147     C        0.87790    0.39270    0.05104    1.000
    C148     C        0.79990    0.34680    0.06421    1.000
    C149     C        0.70990    0.38250    0.06891    1.000
    C150     C        0.69810    0.46240    0.05854    1.000
    C151     C        0.80450    0.25850    0.07325    1.000
    C152     C        0.89380    0.14040    0.09722    1.000
    C153     C        0.97260    0.10010    0.06596    1.000
    C154     C        0.91040    0.12540    0.15276    1.000
    N8       N        0.35850    0.68228    0.66618    1.000
    N9       N        0.53990    0.82562    0.16877    1.000
    N10      N        0.52680    0.67930    0.83798    1.000
    N11      N        0.00120    0.27904    0.58191    1.000
    N12      N        0.99860    0.22492    0.41067    1.000
    N13      N        0.88730    0.26580    0.90428    1.000
    N14      N        0.88590    0.22479    0.08640    1.000
    O36      O        0.78822    0.45027    0.73080    1.000
    O37      O        0.83808    0.57553    0.72902    1.000
    O38      O        0.33270    0.54926    0.65903    1.000
    O39      O        0.15362    0.71922    0.58554    1.000
    O40      O        0.30703    0.72081    0.56847    1.000
    O41      O        0.06516    0.93794    0.22980    1.000
    O42      O        0.11085    0.06433    0.23318    1.000
    O43      O        0.57383    0.95684    0.16441    1.000
    O44      O        0.74131    0.78300    0.08593    1.000
    O45      O        0.58651    0.78381    0.07001    1.000
    O46      O        0.05543    0.55542    0.76580    1.000
    O47      O        0.11165    0.43266    0.76000    1.000
    O48      O        0.55574    0.54830    0.84743    1.000
    O49      O        0.73381    0.70996    0.91789    1.000
    O50      O        0.58059    0.71825    0.93582    1.000
    O51      O        0.20890    0.88361    0.51538    1.000
    O52      O        0.05570    0.85910    0.52645    1.000
    O53      O        0.15850    0.27940    0.58830    1.000
    O54      O        0.97063    0.32955    0.68031    1.000
    O55      O        0.98480    0.45615    0.66208    1.000
    O56      O        0.20650    0.61573    0.48766    1.000
    O57      O        0.05520    0.64270    0.47318    1.000
    O58      O        0.15353    0.23266    0.38896    1.000
    O59      O        0.96410    0.17314    0.31181    1.000
    O60      O        0.99164    0.04722    0.32966    1.000
    O61      O        0.68327    0.88126    0.98597    1.000
    O62      O        0.83545    0.85356    0.97368    1.000
    O63      O        0.73320    0.25386    0.88106    1.000
    O64      O        0.90570    0.44153    0.82650    1.000
    O65      O        0.92960    0.31471    0.80646    1.000
    O66      O        0.82662    0.64187    0.02765    1.000
    O67      O        0.67404    0.61390    0.01790    1.000
    O68      O        0.72990    0.21734    0.06732    1.000
    O69      O        0.91740    0.05253    0.16476    1.000
    O70      O        0.91882    0.18071    0.18405    1.000
