# CIF file generated by openbabel 3.1.0, see https://openbabel.org
data_I
_chemical_name_common 'ja907023c_si_002_clean'
_cell_length_a 20.1173
_cell_length_b 20.1171
_cell_length_c 20.1171
_cell_angle_alpha 109.471
_cell_angle_beta 109.471
_cell_angle_gamma 109.471
_space_group_name_H-M_alt 'P 1'
_space_group_name_Hall 'P 1'
loop_
    _symmetry_equiv_pos_as_xyz
    x,y,z
loop_
    _atom_site_label
    _atom_site_type_symbol
    _atom_site_fract_x
    _atom_site_fract_y
    _atom_site_fract_z
    _atom_site_occupancy
    Co1      Co       0.50000    0.50000    0.50000    1.000
    Co2      Co       0.00000    0.00000    0.50000    1.000
    Co3      Co       0.00000    0.50000    0.00000    1.000
    Co4      Co       0.50000    0.00000    0.00000    1.000
    H1       H        0.62020    0.10480    0.19680    1.000
    H2       H        0.74510    0.66350    0.63600    1.000
    H3       H        0.66360    0.81580    0.93680    1.000
    H4       H        0.19680    0.62020    0.10480    1.000
    H5       H        0.91840    0.25490    0.89090    1.000
    H6       H        0.80320    0.37980    0.89520    1.000
    H7       H        0.02750    0.66350    0.91840    1.000
    H8       H        0.06320    0.87900    0.72680    1.000
    H9       H        0.89310    0.70060    0.27930    1.000
    H10      H        0.42340    0.51540    0.62020    1.000
    H11      H        0.89310    0.61380    0.19250    1.000
    H12      H        0.91840    0.02750    0.66350    1.000
    H13      H        0.61380    0.19250    0.89310    1.000
    H14      H        0.89090    0.63600    0.97250    1.000
    H15      H        0.33640    0.27320    0.15220    1.000
    H16      H        0.12100    0.27320    0.93680    1.000
    H17      H        0.70060    0.27930    0.89310    1.000
    H18      H        0.08160    0.74510    0.10910    1.000
    H19      H        0.18420    0.06320    0.33640    1.000
    H20      H        0.81580    0.93680    0.66360    1.000
    H21      H        0.66350    0.91840    0.02750    1.000
    H22      H        0.10910    0.08160    0.74510    1.000
    H23      H        0.19680    0.09200    0.57660    1.000
    H24      H        0.15220    0.33640    0.27320    1.000
    H25      H        0.74510    0.10910    0.08160    1.000
    H26      H        0.15220    0.87900    0.81580    1.000
    H27      H        0.72070    0.10690    0.29940    1.000
    H28      H        0.63600    0.74510    0.66350    1.000
    H29      H        0.33650    0.36400    0.25490    1.000
    H30      H        0.62020    0.42340    0.51540    1.000
    H31      H        0.61380    0.72070    0.42130    1.000
    H32      H        0.70060    0.80750    0.42130    1.000
    H33      H        0.81580    0.15220    0.87900    1.000
    H34      H        0.48460    0.37980    0.57660    1.000
    H35      H        0.97250    0.89090    0.63600    1.000
    H36      H        0.42130    0.61380    0.72070    1.000
    H37      H        0.10690    0.38620    0.80750    1.000
    H38      H        0.08160    0.97250    0.33650    1.000
    H39      H        0.72070    0.42130    0.61380    1.000
    H40      H        0.33640    0.18420    0.06320    1.000
    H41      H        0.29940    0.19250    0.57870    1.000
    H42      H        0.57660    0.48460    0.37980    1.000
    H43      H        0.10480    0.48460    0.90800    1.000
    H44      H        0.09200    0.89520    0.51540    1.000
    H45      H        0.27930    0.57870    0.38620    1.000
    H46      H        0.80750    0.10690    0.38620    1.000
    H47      H        0.19250    0.57870    0.29940    1.000
    H48      H        0.84780    0.12100    0.18420    1.000
    H49      H        0.12100    0.18420    0.84780    1.000
    H50      H        0.38620    0.27930    0.57870    1.000
    H51      H        0.89520    0.51540    0.09200    1.000
    H52      H        0.93680    0.66360    0.81580    1.000
    H53      H        0.57870    0.29940    0.19250    1.000
    H54      H        0.66360    0.72680    0.84780    1.000
    H55      H        0.02750    0.10910    0.36400    1.000
    H56      H        0.89090    0.91840    0.25490    1.000
    H57      H        0.51540    0.62020    0.42340    1.000
    H58      H        0.66350    0.63600    0.74510    1.000
    H59      H        0.06320    0.33640    0.18420    1.000
    H60      H        0.25490    0.89090    0.91840    1.000
    H61      H        0.42340    0.80320    0.90800    1.000
    H62      H        0.25490    0.33650    0.36400    1.000
    H63      H        0.72680    0.84780    0.66360    1.000
    H64      H        0.29940    0.72070    0.10690    1.000
    H65      H        0.89520    0.80320    0.37980    1.000
    H66      H        0.27930    0.89310    0.70060    1.000
    H67      H        0.72680    0.06320    0.87900    1.000
    H68      H        0.09200    0.57660    0.19680    1.000
    H69      H        0.93680    0.12100    0.27320    1.000
    H70      H        0.80750    0.42130    0.70060    1.000
    H71      H        0.42130    0.70060    0.80750    1.000
    H72      H        0.57660    0.19680    0.09200    1.000
    H73      H        0.57870    0.38620    0.27930    1.000
    H74      H        0.51540    0.09200    0.89520    1.000
    H75      H        0.37980    0.57660    0.48460    1.000
    H76      H        0.90800    0.42340    0.80320    1.000
    H77      H        0.10910    0.36400    0.02750    1.000
    H78      H        0.48460    0.90800    0.10480    1.000
    H79      H        0.97250    0.33650    0.08160    1.000
    H80      H        0.87900    0.81580    0.15220    1.000
    H81      H        0.37980    0.89520    0.80320    1.000
    H82      H        0.36400    0.25490    0.33650    1.000
    H83      H        0.10690    0.29940    0.72070    1.000
    H84      H        0.87900    0.72680    0.06320    1.000
    H85      H        0.84780    0.66360    0.72680    1.000
    H86      H        0.80320    0.90800    0.42340    1.000
    H87      H        0.33650    0.08160    0.97250    1.000
    H88      H        0.10480    0.19680    0.62020    1.000
    H89      H        0.18420    0.84780    0.12100    1.000
    H90      H        0.63600    0.97250    0.89090    1.000
    H91      H        0.27320    0.93680    0.12100    1.000
    H92      H        0.90800    0.10480    0.48460    1.000
    H93      H        0.36400    0.02750    0.10910    1.000
    H94      H        0.27320    0.15220    0.33640    1.000
    H95      H        0.19250    0.89310    0.61380    1.000
    H96      H        0.38620    0.80750    0.10690    1.000
    C1       C        0.54103    0.74611    0.85866    1.000
    C2       C        0.10524    0.19340    0.66530    1.000
    C3       C        0.61433    0.63128    0.74045    1.000
    C4       C        0.25389    0.79492    0.11255    1.000
    C5       C        0.45897    0.25389    0.14134    1.000
    C6       C        0.74407    0.27315    0.89188    1.000
    C7       C        0.87388    0.25955    0.89083    1.000
    C8       C        0.19915    0.38564    0.31423    1.000
    C9       C        0.74407    0.85219    0.47092    1.000
    C10      C        0.74045    0.10917    0.12612    1.000
    C11      C        0.47092    0.74407    0.85219    1.000
    C12      C        0.10812    0.25593    0.72685    1.000
    C13      C        0.18649    0.07141    0.38564    1.000
    C14      C        0.27315    0.89188    0.74407    1.000
    C15      C        0.66530    0.10524    0.19340    1.000
    C16      C        0.19340    0.08816    0.52810    1.000
    C17      C        0.14134    0.45897    0.25389    1.000
    C18      C        0.25389    0.14134    0.45897    1.000
    C19      C        0.61436    0.68577    0.80085    1.000
    C20      C        0.33470    0.52810    0.43994    1.000
    C21      C        0.92859    0.11508    0.31423    1.000
    C22      C        0.08816    0.52810    0.19340    1.000
    C23      C        0.88492    0.81351    0.19915    1.000
    C24      C        0.11255    0.31763    0.85866    1.000
    C25      C        0.52908    0.25593    0.14781    1.000
    C26      C        0.63128    0.01695    0.89083    1.000
    C27      C        0.38567    0.36872    0.25955    1.000
    C28      C        0.25955    0.89083    0.87388    1.000
    C29      C        0.47190    0.56006    0.66530    1.000
    C30      C        0.98305    0.61433    0.87388    1.000
    C31      C        0.12612    0.01695    0.38567    1.000
    C32      C        0.72685    0.47092    0.61873    1.000
    C33      C        0.31423    0.92859    0.11508    1.000
    C34      C        0.61433    0.87388    0.98305    1.000
    C35      C        0.88492    0.68577    0.07141    1.000
    C36      C        0.07141    0.38564    0.18649    1.000
    C37      C        0.80660    0.91184    0.47190    1.000
    C38      C        0.74611    0.85866    0.54103    1.000
    C39      C        0.19340    0.66530    0.10524    1.000
    C40      C        0.85219    0.10812    0.38127    1.000
    C41      C        0.80660    0.33470    0.89476    1.000
    C42      C        0.81351    0.92859    0.61436    1.000
    C43      C        0.25593    0.72685    0.10812    1.000
    C44      C        0.72685    0.10812    0.25593    1.000
    C45      C        0.47092    0.61873    0.72685    1.000
    C46      C        0.11508    0.18649    0.80085    1.000
    C47      C        0.31423    0.19915    0.38564    1.000
    C48      C        0.25955    0.38567    0.36872    1.000
    C49      C        0.80085    0.61436    0.68577    1.000
    C50      C        0.20508    0.88745    0.74611    1.000
    C51      C        0.74045    0.61433    0.63128    1.000
    C52      C        0.52810    0.19340    0.08816    1.000
    C53      C        0.33470    0.89476    0.80660    1.000
    C54      C        0.81351    0.19915    0.88492    1.000
    C55      C        0.63128    0.74045    0.61433    1.000
    C56      C        0.43994    0.91184    0.10524    1.000
    C57      C        0.61873    0.14781    0.89188    1.000
    C58      C        0.88745    0.74611    0.20508    1.000
    C59      C        0.61436    0.81351    0.92859    1.000
    C60      C        0.68237    0.79492    0.54103    1.000
    C61      C        0.85866    0.11255    0.31763    1.000
    C62      C        0.25593    0.14781    0.52908    1.000
    C63      C        0.89083    0.63128    0.01695    1.000
    C64      C        0.31763    0.20508    0.45897    1.000
    C65      C        0.14134    0.88745    0.68237    1.000
    C66      C        0.79492    0.11255    0.25389    1.000
    C67      C        0.91184    0.10524    0.43994    1.000
    C68      C        0.89476    0.56006    0.08816    1.000
    C69      C        0.38567    0.12612    0.01695    1.000
    C70      C        0.01695    0.89083    0.63128    1.000
    C71      C        0.85866    0.54103    0.74611    1.000
    C72      C        0.74611    0.20508    0.88745    1.000
    C73      C        0.20508    0.45897    0.31763    1.000
    C74      C        0.36872    0.25955    0.38567    1.000
    C75      C        0.38564    0.31423    0.19915    1.000
    C76      C        0.18649    0.80085    0.11508    1.000
    C77      C        0.14781    0.89188    0.61873    1.000
    C78      C        0.12612    0.74045    0.10917    1.000
    C79      C        0.38564    0.18649    0.07141    1.000
    C80      C        0.47190    0.80660    0.91184    1.000
    C81      C        0.11508    0.31423    0.92859    1.000
    C82      C        0.89188    0.74407    0.27315    1.000
    C83      C        0.89188    0.61873    0.14781    1.000
    C84      C        0.10917    0.12612    0.74045    1.000
    C85      C        0.80085    0.11508    0.18649    1.000
    C86      C        0.19915    0.88492    0.81351    1.000
    C87      C        0.10812    0.38127    0.85219    1.000
    C88      C        0.38127    0.27315    0.52908    1.000
    C89      C        0.68577    0.80085    0.61436    1.000
    C90      C        0.87388    0.98305    0.61433    1.000
    C91      C        0.88745    0.68237    0.14134    1.000
    C92      C        0.36872    0.98305    0.10917    1.000
    C93      C        0.56006    0.08816    0.89476    1.000
    C94      C        0.61873    0.72685    0.47092    1.000
    C95      C        0.68577    0.07141    0.88492    1.000
    C96      C        0.66530    0.47190    0.56006    1.000
    C97      C        0.68237    0.14134    0.88745    1.000
    C98      C        0.85219    0.47092    0.74407    1.000
    C99      C        0.56006    0.66530    0.47190    1.000
    C100     C        0.98305    0.10917    0.36872    1.000
    C101     C        0.52810    0.43994    0.33470    1.000
    C102     C        0.79492    0.54103    0.68237    1.000
    C103     C        0.52908    0.38127    0.27315    1.000
    C104     C        0.91184    0.47190    0.80660    1.000
    C105     C        0.89083    0.87388    0.25955    1.000
    C106     C        0.38127    0.85219    0.10812    1.000
    C107     C        0.27315    0.52908    0.38127    1.000
    C108     C        0.92859    0.61436    0.81351    1.000
    C109     C        0.08816    0.89476    0.56006    1.000
    C110     C        0.10917    0.36872    0.98305    1.000
    C111     C        0.11255    0.25389    0.79492    1.000
    C112     C        0.89476    0.80660    0.33470    1.000
    C113     C        0.07141    0.88492    0.68577    1.000
    C114     C        0.43994    0.33470    0.52810    1.000
    C115     C        0.45897    0.31763    0.20508    1.000
    C116     C        0.01695    0.38567    0.12612    1.000
    C117     C        0.14781    0.52908    0.25593    1.000
    C118     C        0.31763    0.85866    0.11255    1.000
    C119     C        0.10524    0.43994    0.91184    1.000
    C120     C        0.54103    0.68237    0.79492    1.000
    N1       N        0.97412    0.54335    0.87091    1.000
    N2       N        0.02588    0.89679    0.56923    1.000
    N3       N        0.43077    0.97412    0.10321    1.000
    N4       N        0.89679    0.56923    0.02588    1.000
    N5       N        0.32756    0.45665    0.43077    1.000
    N6       N        0.43077    0.32756    0.45665    1.000
    N7       N        0.45665    0.43077    0.32756    1.000
    N8       N        0.56923    0.02588    0.89679    1.000
    N9       N        0.89679    0.87091    0.32756    1.000
    N10      N        0.67244    0.10321    0.12909    1.000
    N11      N        0.12909    0.67244    0.10321    1.000
    N12      N        0.12909    0.02588    0.45665    1.000
    N13      N        0.54335    0.87091    0.97412    1.000
    N14      N        0.87091    0.32756    0.89679    1.000
    N15      N        0.56923    0.67244    0.54335    1.000
    N16      N        0.10321    0.12909    0.67244    1.000
    N17      N        0.54335    0.56923    0.67244    1.000
    N18      N        0.97412    0.10321    0.43077    1.000
    N19      N        0.87091    0.97412    0.54335    1.000
    N20      N        0.10321    0.43077    0.97412    1.000
    N21      N        0.45665    0.12909    0.02588    1.000
    N22      N        0.67244    0.54335    0.56923    1.000
    N23      N        0.02588    0.45665    0.12909    1.000
    N24      N        0.32756    0.89679    0.87091    1.000
    O1       O        0.06738    0.96733    0.45227    1.000
    O2       O        0.89995    0.93262    0.38489    1.000
    O3       O        0.51506    0.61511    0.54773    1.000
    O4       O        0.48494    0.38489    0.45227    1.000
    O5       O        0.45227    0.06738    0.96733    1.000
    O6       O        0.61511    0.54773    0.51506    1.000
    O7       O        0.38489    0.89995    0.93262    1.000
    O8       O        0.45227    0.48494    0.38489    1.000
    O9       O        0.03267    0.10005    0.48494    1.000
    O10      O        0.61511    0.10005    0.06738    1.000
    O11      O        0.03267    0.54773    0.93262    1.000
    O12      O        0.06738    0.61511    0.10005    1.000
    O13      O        0.96733    0.89995    0.51506    1.000
    O14      O        0.54773    0.51506    0.61511    1.000
    O15      O        0.54773    0.93262    0.03267    1.000
    O16      O        0.10005    0.48494    0.03267    1.000
    O17      O        0.93262    0.03267    0.54773    1.000
    O18      O        0.48494    0.03267    0.10005    1.000
    O19      O        0.89995    0.51506    0.96733    1.000
    O20      O        0.93262    0.38489    0.89995    1.000
    O21      O        0.10005    0.06738    0.61511    1.000
    O22      O        0.38489    0.45227    0.48494    1.000
    O23      O        0.51506    0.96733    0.89995    1.000
    O24      O        0.96733    0.45227    0.06738    1.000
