# CIF file generated by openbabel 3.1.0, see https://openbabel.org
data_I
_chemical_name_common 'image0'
_cell_length_a 16.7963
_cell_length_b 16.7963
_cell_length_c 16.7963
_cell_angle_alpha 90
_cell_angle_beta 90
_cell_angle_gamma 90
_space_group_name_H-M_alt 'P 1'
_space_group_name_Hall 'P 1'
loop_
    _symmetry_equiv_pos_as_xyz
    x,y,z
loop_
    _atom_site_label
    _atom_site_type_symbol
    _atom_site_fract_x
    _atom_site_fract_y
    _atom_site_fract_z
    _atom_site_occupancy
    O1       O        0.90960    0.48000    0.19410    1.000
    O2       O        0.40960    0.98000    0.69410    1.000
    O3       O        0.09040    0.52000    0.19410    1.000
    O4       O        0.59040    0.02000    0.69410    1.000
    O5       O        0.09040    0.48000    0.80590    1.000
    O6       O        0.59040    0.98000    0.30590    1.000
    O7       O        0.90960    0.52000    0.80590    1.000
    O8       O        0.40960    0.02000    0.30590    1.000
    O9       O        0.19410    0.90960    0.48000    1.000
    O10      O        0.69410    0.40960    0.98000    1.000
    O11      O        0.19410    0.09040    0.52000    1.000
    O12      O        0.69410    0.59040    0.02000    1.000
    O13      O        0.80590    0.09040    0.48000    1.000
    O14      O        0.30590    0.59040    0.98000    1.000
    O15      O        0.80590    0.90960    0.52000    1.000
    O16      O        0.30590    0.40960    0.02000    1.000
    O17      O        0.48000    0.19410    0.90960    1.000
    O18      O        0.98000    0.69410    0.40960    1.000
    O19      O        0.52000    0.19410    0.09040    1.000
    O20      O        0.02000    0.69410    0.59040    1.000
    O21      O        0.48000    0.80590    0.09040    1.000
    O22      O        0.98000    0.30590    0.59040    1.000
    O23      O        0.52000    0.80590    0.90960    1.000
    O24      O        0.02000    0.30590    0.40960    1.000
    O25      O        0.48000    0.90960    0.19410    1.000
    O26      O        0.98000    0.40960    0.69410    1.000
    O27      O        0.52000    0.09040    0.19410    1.000
    O28      O        0.02000    0.59040    0.69410    1.000
    O29      O        0.48000    0.09040    0.80590    1.000
    O30      O        0.98000    0.59040    0.30590    1.000
    O31      O        0.52000    0.90960    0.80590    1.000
    O32      O        0.02000    0.40960    0.30590    1.000
    O33      O        0.90960    0.19410    0.48000    1.000
    O34      O        0.40960    0.69410    0.98000    1.000
    O35      O        0.09040    0.19410    0.52000    1.000
    O36      O        0.59040    0.69410    0.02000    1.000
    O37      O        0.09040    0.80590    0.48000    1.000
    O38      O        0.59040    0.30590    0.98000    1.000
    O39      O        0.90960    0.80590    0.52000    1.000
    O40      O        0.40960    0.30590    0.02000    1.000
    O41      O        0.19410    0.48000    0.90960    1.000
    O42      O        0.69410    0.98000    0.40960    1.000
    O43      O        0.19410    0.52000    0.09040    1.000
    O44      O        0.69410    0.02000    0.59040    1.000
    O45      O        0.80590    0.48000    0.09040    1.000
    O46      O        0.30590    0.98000    0.59040    1.000
    O47      O        0.80590    0.52000    0.90960    1.000
    O48      O        0.30590    0.02000    0.40960    1.000
    Al1      Al       0.00000    0.50000    0.00000    1.000
    Al2      Al       0.50000    0.00000    0.50000    1.000
    Al3      Al       0.00000    0.00000    0.50000    1.000
    Al4      Al       0.50000    0.50000    0.00000    1.000
    Al5      Al       0.50000    0.00000    0.00000    1.000
    Al6      Al       0.00000    0.50000    0.50000    1.000
    P1       P        0.87780    0.43360    0.12220    1.000
    O49      O        0.85900    0.34710    0.14100    1.000
    O50      O        0.94250    0.43740    0.05750    1.000
    P2       P        0.37780    0.93360    0.62220    1.000
    O51      O        0.35900    0.84710    0.64100    1.000
    O52      O        0.44250    0.93740    0.55750    1.000
    P3       P        0.12220    0.56640    0.12220    1.000
    O53      O        0.14100    0.65290    0.14100    1.000
    O54      O        0.05750    0.56260    0.05750    1.000
    P4       P        0.62220    0.06640    0.62220    1.000
    O55      O        0.64100    0.15290    0.64100    1.000
    O56      O        0.55750    0.06260    0.55750    1.000
    P5       P        0.12220    0.43360    0.87780    1.000
    O57      O        0.14100    0.34710    0.85900    1.000
    O58      O        0.05750    0.43740    0.94250    1.000
    P6       P        0.62220    0.93360    0.37780    1.000
    O59      O        0.64100    0.84710    0.35900    1.000
    O60      O        0.55750    0.93740    0.44250    1.000
    P7       P        0.87780    0.56640    0.87780    1.000
    O61      O        0.85900    0.65290    0.85900    1.000
    O62      O        0.94250    0.56260    0.94250    1.000
    P8       P        0.37780    0.06640    0.37780    1.000
    O63      O        0.35900    0.15290    0.35900    1.000
    O64      O        0.44250    0.06260    0.44250    1.000
    P9       P        0.12220    0.87780    0.43360    1.000
    O65      O        0.14100    0.85900    0.34710    1.000
    O66      O        0.05750    0.94250    0.43740    1.000
    P10      P        0.62220    0.37780    0.93360    1.000
    O67      O        0.64100    0.35900    0.84710    1.000
    O68      O        0.55750    0.44250    0.93740    1.000
    P11      P        0.12220    0.12220    0.56640    1.000
    O69      O        0.14100    0.14100    0.65290    1.000
    O70      O        0.05750    0.05750    0.56260    1.000
    P12      P        0.62220    0.62220    0.06640    1.000
    O71      O        0.64100    0.64100    0.15290    1.000
    O72      O        0.55750    0.55750    0.06260    1.000
    P13      P        0.87780    0.12220    0.43360    1.000
    O73      O        0.85900    0.14100    0.34710    1.000
    O74      O        0.94250    0.05750    0.43740    1.000
    P14      P        0.37780    0.62220    0.93360    1.000
    O75      O        0.35900    0.64100    0.84710    1.000
    O76      O        0.44250    0.55750    0.93740    1.000
    P15      P        0.87780    0.87780    0.56640    1.000
    O77      O        0.85900    0.85900    0.65290    1.000
    O78      O        0.94250    0.94250    0.56260    1.000
    P16      P        0.37780    0.37780    0.06640    1.000
    O79      O        0.35900    0.35900    0.15290    1.000
    O80      O        0.44250    0.44250    0.06260    1.000
    P17      P        0.43360    0.12220    0.87780    1.000
    O81      O        0.34710    0.14100    0.85900    1.000
    O82      O        0.43740    0.05750    0.94250    1.000
    P18      P        0.93360    0.62220    0.37780    1.000
    O83      O        0.84710    0.64100    0.35900    1.000
    O84      O        0.93740    0.55750    0.44250    1.000
    P19      P        0.56640    0.12220    0.12220    1.000
    O85      O        0.65290    0.14100    0.14100    1.000
    O86      O        0.56260    0.05750    0.05750    1.000
    P20      P        0.06640    0.62220    0.62220    1.000
    O87      O        0.15290    0.64100    0.64100    1.000
    O88      O        0.06260    0.55750    0.55750    1.000
    P21      P        0.43360    0.87780    0.12220    1.000
    O89      O        0.34710    0.85900    0.14100    1.000
    O90      O        0.43740    0.94250    0.05750    1.000
    P22      P        0.93360    0.37780    0.62220    1.000
    O91      O        0.84710    0.35900    0.64100    1.000
    O92      O        0.93740    0.44250    0.55750    1.000
    P23      P        0.56640    0.87780    0.87780    1.000
    O93      O        0.65290    0.85900    0.85900    1.000
    O94      O        0.56260    0.94250    0.94250    1.000
    P24      P        0.06640    0.37780    0.37780    1.000
    O95      O        0.15290    0.35900    0.35900    1.000
    O96      O        0.06260    0.44250    0.44250    1.000
    Al7      Al       0.00000    0.50000    0.25000    1.000
    Al8      Al       0.00000    0.50000    0.75000    1.000
    Al9      Al       0.50000    0.00000    0.25000    1.000
    Al10     Al       0.25000    0.00000    0.50000    1.000
    Al11     Al       0.75000    0.00000    0.50000    1.000
    Al12     Al       0.25000    0.50000    0.00000    1.000
    Al13     Al       0.50000    0.25000    0.00000    1.000
    Al14     Al       0.50000    0.75000    0.00000    1.000
    Al15     Al       0.00000    0.25000    0.50000    1.000
    Al16     Al       0.50000    0.00000    0.75000    1.000
    Al17     Al       0.00000    0.75000    0.50000    1.000
    Al18     Al       0.75000    0.50000    0.00000    1.000
