# CIF file generated by openbabel 3.1.0, see https://openbabel.org
data_I
_chemical_name_common 'image0'
_cell_length_a 20.4751
_cell_length_b 20.4751
_cell_length_c 10.4075
_cell_angle_alpha 90
_cell_angle_beta 90
_cell_angle_gamma 120
_space_group_name_H-M_alt 'P 1'
_space_group_name_Hall 'P 1'
loop_
    _symmetry_equiv_pos_as_xyz
    x,y,z
loop_
    _atom_site_label
    _atom_site_type_symbol
    _atom_site_fract_x
    _atom_site_fract_y
    _atom_site_fract_z
    _atom_site_occupancy
    Mn1      Mn       0.37972    0.83466    0.71282    1.000
    O1       O        0.42351    0.75904    0.69959    1.000
    C1       C        0.49204    0.78096    0.69100    1.000
    O2       O        0.51925    0.73846    0.68630    1.000
    O3       O        0.51498    0.90452    0.73422    1.000
    C2       C        0.61539    0.15371    0.92760    1.000
    C3       C        0.60076    0.10543    0.80900    1.000
    O4       O        0.63338    0.19156    0.43195    1.000
    C4       C        0.56827    0.02725    0.82250    1.000
    H1       H        0.55700    0.00570    0.90400    1.000
    C5       C        0.57070    0.01362    0.59290    1.000
    H2       H        0.56100    0.98310    0.52100    1.000
    C6       C        0.55295    0.98215    0.71580    1.000
    C7       C        0.60310    0.09121    0.57970    1.000
    C8       C        0.61721    0.13651    0.68750    1.000
    H3       H        0.63800    0.18830    0.67750    1.000
    O5       O        0.59971    0.11777    0.03277    1.000
    C9       C        0.61775    0.12455    0.44780    1.000
    O6       O        0.61117    0.08281    0.35269    1.000
    O7       O        0.64057    0.22188    0.91580    1.000
    C10      C        0.54854    0.86457    0.67840    1.000
    H4       H        0.54760    0.87380    0.58630    1.000
    C11      C        0.62620    0.88760    0.70130    1.000
    H5       H        0.65660    0.94120    0.68950    1.000
    H6       H        0.64200    0.86230    0.64210    1.000
    H7       H        0.63200    0.87490    0.78770    1.000
    Mn2      Mn       0.16534    0.54506    0.71282    1.000
    O8       O        0.24096    0.66447    0.69959    1.000
    C12      C        0.21904    0.71108    0.69100    1.000
    O9       O        0.26154    0.78079    0.68630    1.000
    O10      O        0.09548    0.61046    0.73422    1.000
    C13      C        0.84629    0.46168    0.92760    1.000
    C14      C        0.89457    0.49533    0.80900    1.000
    O11      O        0.80844    0.44182    0.43195    1.000
    C15      C        0.97275    0.54102    0.82250    1.000
    H8       H        0.99430    0.55130    0.90400    1.000
    C16      C        0.98638    0.55708    0.59290    1.000
    H9       H        0.01690    0.57790    0.52100    1.000
    C17      C        0.01785    0.57080    0.71580    1.000
    C18      C        0.90879    0.51189    0.57970    1.000
    C19      C        0.86349    0.48070    0.68750    1.000
    H10      H        0.81170    0.44970    0.67750    1.000
    O12      O        0.88223    0.48194    0.03277    1.000
    C20      C        0.87545    0.49320    0.44780    1.000
    O13      O        0.91719    0.52836    0.35269    1.000
    O14      O        0.77812    0.41869    0.91580    1.000
    C21      C        0.13543    0.68397    0.67840    1.000
    H11      H        0.12620    0.67380    0.58630    1.000
    C22      C        0.11240    0.73860    0.70130    1.000
    H12      H        0.05880    0.71540    0.68950    1.000
    H13      H        0.13770    0.77970    0.64210    1.000
    H14      H        0.12510    0.75710    0.78770    1.000
    Mn3      Mn       0.45494    0.62028    0.71282    1.000
    O15      O        0.33553    0.57649    0.69959    1.000
    C23      C        0.28892    0.50796    0.69100    1.000
    O16      O        0.21921    0.48075    0.68630    1.000
    O17      O        0.38954    0.48502    0.73422    1.000
    C24      C        0.53832    0.38461    0.92760    1.000
    C25      C        0.50467    0.39924    0.80900    1.000
    O18      O        0.55818    0.36662    0.43195    1.000
    C26      C        0.45898    0.43173    0.82250    1.000
    H15      H        0.44870    0.44300    0.90400    1.000
    C27      C        0.44292    0.42930    0.59290    1.000
    H16      H        0.42210    0.43900    0.52100    1.000
    C28      C        0.42920    0.44705    0.71580    1.000
    C29      C        0.48811    0.39690    0.57970    1.000
    C30      C        0.51930    0.38279    0.68750    1.000
    H17      H        0.55030    0.36200    0.67750    1.000
    O19      O        0.51806    0.40029    0.03277    1.000
    C31      C        0.50680    0.38225    0.44780    1.000
    O20      O        0.47164    0.38883    0.35269    1.000
    O21      O        0.58131    0.35943    0.91580    1.000
    C32      C        0.31603    0.45146    0.67840    1.000
    H18      H        0.32620    0.45240    0.58630    1.000
    C33      C        0.26140    0.37380    0.70130    1.000
    H19      H        0.28460    0.34340    0.68950    1.000
    H20      H        0.22030    0.35800    0.64210    1.000
    H21      H        0.24290    0.36800    0.78770    1.000
    Mn4      Mn       0.62028    0.16534    0.21282    1.000
    O22      O        0.57649    0.24096    0.19959    1.000
    C34      C        0.50796    0.21904    0.19100    1.000
    O23      O        0.48075    0.26154    0.18630    1.000
    O24      O        0.48502    0.09548    0.23422    1.000
    C35      C        0.38461    0.84629    0.42760    1.000
    C36      C        0.39924    0.89457    0.30900    1.000
    O25      O        0.36662    0.80844    0.93195    1.000
    C37      C        0.43173    0.97275    0.32250    1.000
    H22      H        0.44300    0.99430    0.40400    1.000
    C38      C        0.42930    0.98638    0.09290    1.000
    H23      H        0.43900    0.01690    0.02100    1.000
    C39      C        0.44705    0.01785    0.21580    1.000
    C40      C        0.39690    0.90879    0.07970    1.000
    C41      C        0.38279    0.86349    0.18750    1.000
    H24      H        0.36200    0.81170    0.17750    1.000
    O26      O        0.40029    0.88223    0.53277    1.000
    C42      C        0.38225    0.87545    0.94780    1.000
    O27      O        0.38883    0.91719    0.85269    1.000
    O28      O        0.35943    0.77812    0.41580    1.000
    C43      C        0.45146    0.13543    0.17840    1.000
    H25      H        0.45240    0.12620    0.08630    1.000
    C44      C        0.37380    0.11240    0.20130    1.000
    H26      H        0.34340    0.05880    0.18950    1.000
    H27      H        0.35800    0.13770    0.14210    1.000
    H28      H        0.36800    0.12510    0.28770    1.000
    Mn5      Mn       0.83466    0.45494    0.21282    1.000
    O29      O        0.75904    0.33553    0.19959    1.000
    C45      C        0.78096    0.28892    0.19100    1.000
    O30      O        0.73846    0.21921    0.18630    1.000
    O31      O        0.90452    0.38954    0.23422    1.000
    C46      C        0.15371    0.53832    0.42760    1.000
    C47      C        0.10543    0.50467    0.30900    1.000
    O32      O        0.19156    0.55818    0.93195    1.000
    C48      C        0.02725    0.45898    0.32250    1.000
    H29      H        0.00570    0.44870    0.40400    1.000
    C49      C        0.01362    0.44292    0.09290    1.000
    H30      H        0.98310    0.42210    0.02100    1.000
    C50      C        0.98215    0.42920    0.21580    1.000
    C51      C        0.09121    0.48811    0.07970    1.000
    C52      C        0.13651    0.51930    0.18750    1.000
    H31      H        0.18830    0.55030    0.17750    1.000
    O33      O        0.11777    0.51806    0.53277    1.000
    C53      C        0.12455    0.50680    0.94780    1.000
    O34      O        0.08281    0.47164    0.85269    1.000
    O35      O        0.22188    0.58131    0.41580    1.000
    C54      C        0.86457    0.31603    0.17840    1.000
    H32      H        0.87380    0.32620    0.08630    1.000
    C55      C        0.88760    0.26140    0.20130    1.000
    H33      H        0.94120    0.28460    0.18950    1.000
    H34      H        0.86230    0.22030    0.14210    1.000
    H35      H        0.87490    0.24290    0.28770    1.000
    Mn6      Mn       0.54506    0.37972    0.21282    1.000
    O36      O        0.66447    0.42351    0.19959    1.000
    C56      C        0.71108    0.49204    0.19100    1.000
    O37      O        0.78079    0.51925    0.18630    1.000
    O38      O        0.61046    0.51498    0.23422    1.000
    C57      C        0.46168    0.61539    0.42760    1.000
    C58      C        0.49533    0.60076    0.30900    1.000
    O39      O        0.44182    0.63338    0.93195    1.000
    C59      C        0.54102    0.56827    0.32250    1.000
    H36      H        0.55130    0.55700    0.40400    1.000
    C60      C        0.55708    0.57070    0.09290    1.000
    H37      H        0.57790    0.56100    0.02100    1.000
    C61      C        0.57080    0.55295    0.21580    1.000
    C62      C        0.51189    0.60310    0.07970    1.000
    C63      C        0.48070    0.61721    0.18750    1.000
    H38      H        0.44970    0.63800    0.17750    1.000
    O40      O        0.48194    0.59971    0.53277    1.000
    C64      C        0.49320    0.61775    0.94780    1.000
    O41      O        0.52836    0.61117    0.85269    1.000
    O42      O        0.41869    0.64057    0.41580    1.000
    C65      C        0.68397    0.54854    0.17840    1.000
    H39      H        0.67380    0.54760    0.08630    1.000
    C66      C        0.73860    0.62620    0.20130    1.000
    H40      H        0.71540    0.65660    0.18950    1.000
    H41      H        0.77970    0.64200    0.14210    1.000
    H42      H        0.75710    0.63200    0.28770    1.000
    Na1      Na       0.66667    0.33333    0.02826    1.000
    Na2      Na       0.33333    0.66667    0.52826    1.000
    K1       K        0.33333    0.66667    0.93620    1.000
    K2       K        0.66667    0.33333    0.43620    1.000
