# CIF file generated by openbabel 3.1.0, see https://openbabel.org
data_I
_chemical_name_common 'BAHGUN04_clean'
_cell_length_a 5.006
_cell_length_b 11.052
_cell_length_c 12.8251
_cell_angle_alpha 91.6839
_cell_angle_beta 101.254
_cell_angle_gamma 81.3402
_space_group_name_H-M_alt 'P 1'
_space_group_name_Hall 'P 1'
loop_
    _symmetry_equiv_pos_as_xyz
    x,y,z
loop_
    _atom_site_label
    _atom_site_type_symbol
    _atom_site_fract_x
    _atom_site_fract_y
    _atom_site_fract_z
    _atom_site_occupancy
    Cu1      Cu       0.82600    0.30453    0.22675    1.000
    Cu2      Cu       0.59925    0.80453    0.77325    1.000
    H1       H        0.59460    0.51040    0.87220    1.000
    H2       H        0.83050    0.37460    0.00120    1.000
    H3       H        0.33400    0.49450    0.19360    1.000
    H4       H        0.07410    0.62910    0.06800    1.000
    H5       H        0.01430    0.96010    0.48740    1.000
    H6       H        0.79650    0.06940    0.33800    1.000
    H7       H        0.32530    0.30240    0.38980    1.000
    H8       H        0.55470    0.20140    0.54380    1.000
    H9       H        0.72240    0.01040    0.12780    1.000
    H10      H        0.82930    0.87460    0.99880    1.000
    H11      H        0.14040    0.99450    0.80640    1.000
    H12      H        0.00610    0.12910    0.93200    1.000
    H13      H        0.52690    0.46010    0.51260    1.000
    H14      H        0.45850    0.56940    0.66200    1.000
    H15      H        0.93550    0.80240    0.61020    1.000
    H16      H        0.01090    0.70140    0.45620    1.000
    C1       C        0.13818    0.67280    0.86856    1.000
    C2       C        0.30408    0.58700    0.95436    1.000
    C3       C        0.53648    0.50840    0.93656    1.000
    C4       C        0.67915    0.42790    0.01510    1.000
    C5       C        0.38585    0.49780    0.12810    1.000
    C6       C        0.22910    0.57940    0.05300    1.000
    C7       C        0.46253    0.99880    0.63426    1.000
    C8       C        0.30902    0.06810    0.53424    1.000
    C9       C        0.07992    0.02970    0.46984    1.000
    C10      C        0.95097    0.09570    0.37974    1.000
    C11      C        0.26189    0.23360    0.41038    1.000
    C12      C        0.40180    0.17300    0.50300    1.000
    C13      C        0.26962    0.17280    0.13144    1.000
    C14      C        0.34972    0.08700    0.04564    1.000
    C15      C        0.59992    0.00840    0.06344    1.000
    C16      C        0.66405    0.92790    0.98490    1.000
    C17      C        0.25775    0.99780    0.87190    1.000
    C18      C        0.17610    0.07940    0.94700    1.000
    C19      C        0.82827    0.49880    0.36574    1.000
    C20      C        0.77478    0.56810    0.46576    1.000
    C21      C        0.61008    0.52970    0.53016    1.000
    C22      C        0.57123    0.59570    0.62026    1.000
    C23      C        0.85151    0.73360    0.58962    1.000
    C24      C        0.89880    0.67300    0.49700    1.000
    N1       N        0.61003    0.42270    0.11086    1.000
    N2       N        0.03695    0.19640    0.34890    1.000
    N3       N        0.49917    0.92270    0.88914    1.000
    N4       N        0.68805    0.69640    0.65110    1.000
    O1       O        0.88973    0.70990    0.87806    1.000
    O2       O        0.24827    0.70120    0.79494    1.000
    O3       O        0.35508    0.90950    0.65836    1.000
    O4       O        0.68256    0.03050    0.68232    1.000
    O5       O        0.01167    0.20990    0.12194    1.000
    O6       O        0.45333    0.20120    0.20506    1.000
    O7       O        0.69672    0.40950    0.34164    1.000
    O8       O        0.00024    0.53050    0.31768    1.000
