# CIF file generated by openbabel 3.1.0, see https://openbabel.org
data_I
_chemical_name_common 'image0'
_cell_length_a 6.991
_cell_length_b 10.031
_cell_length_c 16.238
_cell_angle_alpha 90
_cell_angle_beta 98.5
_cell_angle_gamma 90
_space_group_name_H-M_alt 'P 1'
_space_group_name_Hall 'P 1'
loop_
    _symmetry_equiv_pos_as_xyz
    x,y,z
loop_
    _atom_site_label
    _atom_site_type_symbol
    _atom_site_fract_x
    _atom_site_fract_y
    _atom_site_fract_z
    _atom_site_occupancy
    Co1      Co       0.15296    0.63614    0.29260    1.000
    O1       O        0.22170    0.44490    0.25280    1.000
    O2       O        0.12310    0.23370    0.24690    1.000
    O3       O        0.98110    0.66740    0.17920    1.000
    O4       O        0.71890    0.59720    0.09910    1.000
    O5       O        0.02180    0.77210    0.36250    1.000
    O6       O        0.85240    0.78480    0.46630    1.000
    N1       N        0.89930    0.52420    0.31560    1.000
    C1       C        0.96180    0.38480    0.32510    1.000
    C2       C        0.11390    0.35230    0.26970    1.000
    C3       C        0.75190    0.54060    0.24150    1.000
    C4       C        0.82420    0.60410    0.16730    1.000
    C5       C        0.83700    0.58070    0.39090    1.000
    C6       C        0.90840    0.72350    0.40710    1.000
    H1       H        0.02100    0.37000    0.38400    1.000
    H2       H        0.85400    0.32500    0.31600    1.000
    H3       H        0.70200    0.45800    0.22500    1.000
    H4       H        0.64500    0.58800    0.25500    1.000
    H5       H        0.70300    0.58100    0.39100    1.000
    H6       H        0.88600    0.52700    0.43900    1.000
    Co2      Co       0.34704    0.13614    0.20740    1.000
    O7       O        0.27830    0.94490    0.24720    1.000
    O8       O        0.37690    0.73370    0.25310    1.000
    O9       O        0.51890    0.16740    0.32080    1.000
    O10      O        0.78110    0.09720    0.40090    1.000
    O11      O        0.47820    0.27210    0.13750    1.000
    O12      O        0.64760    0.28480    0.03370    1.000
    N2       N        0.60070    0.02420    0.18440    1.000
    C7       C        0.53820    0.88480    0.17490    1.000
    C8       C        0.38610    0.85230    0.23030    1.000
    C9       C        0.74810    0.04060    0.25850    1.000
    C10      C        0.67580    0.10410    0.33270    1.000
    C11      C        0.66300    0.08070    0.10910    1.000
    C12      C        0.59160    0.22350    0.09290    1.000
    H7       H        0.47900    0.87000    0.11600    1.000
    H8       H        0.64600    0.82500    0.18400    1.000
    H9       H        0.79800    0.95800    0.27500    1.000
    H10      H        0.85500    0.08800    0.24500    1.000
    H11      H        0.79700    0.08100    0.10900    1.000
    H12      H        0.61400    0.02700    0.06100    1.000
    Co3      Co       0.84704    0.36386    0.70740    1.000
    O13      O        0.77830    0.55510    0.74720    1.000
    O14      O        0.87690    0.76630    0.75310    1.000
    O15      O        0.01890    0.33260    0.82080    1.000
    O16      O        0.28110    0.40280    0.90090    1.000
    O17      O        0.97820    0.22790    0.63750    1.000
    O18      O        0.14760    0.21520    0.53370    1.000
    N3       N        0.10070    0.47580    0.68440    1.000
    C13      C        0.03820    0.61520    0.67490    1.000
    C14      C        0.88610    0.64770    0.73030    1.000
    C15      C        0.24810    0.45940    0.75850    1.000
    C16      C        0.17580    0.39590    0.83270    1.000
    C17      C        0.16300    0.41930    0.60910    1.000
    C18      C        0.09160    0.27650    0.59290    1.000
    H13      H        0.97900    0.63000    0.61600    1.000
    H14      H        0.14600    0.67500    0.68400    1.000
    H15      H        0.29800    0.54200    0.77500    1.000
    H16      H        0.35500    0.41200    0.74500    1.000
    H17      H        0.29700    0.41900    0.60900    1.000
    H18      H        0.11400    0.47300    0.56100    1.000
    Co4      Co       0.65296    0.86386    0.79260    1.000
    O19      O        0.72170    0.05510    0.75280    1.000
    O20      O        0.62310    0.26630    0.74690    1.000
    O21      O        0.48110    0.83260    0.67920    1.000
    O22      O        0.21890    0.90280    0.59910    1.000
    O23      O        0.52180    0.72790    0.86250    1.000
    O24      O        0.35240    0.71520    0.96630    1.000
    N4       N        0.39930    0.97580    0.81560    1.000
    C19      C        0.46180    0.11520    0.82510    1.000
    C20      C        0.61390    0.14770    0.76970    1.000
    C21      C        0.25190    0.95940    0.74150    1.000
    C22      C        0.32420    0.89590    0.66730    1.000
    C23      C        0.33700    0.91930    0.89090    1.000
    C24      C        0.40840    0.77650    0.90710    1.000
    H19      H        0.52100    0.13000    0.88400    1.000
    H20      H        0.35400    0.17500    0.81600    1.000
    H21      H        0.20200    0.04200    0.72500    1.000
    H22      H        0.14500    0.91200    0.75500    1.000
    H23      H        0.20300    0.91900    0.89100    1.000
    H24      H        0.38600    0.97300    0.93900    1.000
    Ca1      Ca       0.00000    0.00000    0.50000    1.000
    Ca2      Ca       0.50000    0.50000    0.00000    1.000
