# CIF file generated by openbabel 3.1.0, see https://openbabel.org
data_I
_chemical_name_common 'image0'
_cell_length_a 10.213
_cell_length_b 17.607
_cell_length_c 28.123
_cell_angle_alpha 90
_cell_angle_beta 98.6
_cell_angle_gamma 90
_space_group_name_H-M_alt 'P 1'
_space_group_name_Hall 'P 1'
loop_
    _symmetry_equiv_pos_as_xyz
    x,y,z
loop_
    _atom_site_label
    _atom_site_type_symbol
    _atom_site_fract_x
    _atom_site_fract_y
    _atom_site_fract_z
    _atom_site_occupancy
    Co1      Co       0.20943    0.62384    0.16944    1.000
    Co2      Co       0.00826    0.54941    0.25564    1.000
    O1       O        0.66920    0.34560    0.87725    1.000
    O2       O        0.54260    0.38440    0.81130    1.000
    O3       O        0.21120    0.51261    0.16813    1.000
    O4       O        0.11920    0.46510    0.22943    1.000
    O5       O        0.27650    0.19990    0.27846    1.000
    O6       O        0.34110    0.12400    0.22294    1.000
    O7       O        0.05460    0.39390    0.80726    1.000
    O8       O        0.96610    0.35310    0.86943    1.000
    C1       C        0.17980    0.45930    0.19412    1.000
    C2       C        0.22260    0.38110    0.18045    1.000
    C3       C        0.23390    0.32150    0.21291    1.000
    H1       H        0.20890    0.32850    0.24310    1.000
    C4       C        0.28230    0.25110    0.20096    1.000
    C5       C        0.31730    0.23980    0.15513    1.000
    H2       H        0.34980    0.19310    0.14680    1.000
    C6       C        0.30300    0.29890    0.12244    1.000
    C7       C        0.25540    0.36970    0.13505    1.000
    H3       H        0.24580    0.40910    0.11280    1.000
    C8       C        0.28420    0.32010    0.03333    1.000
    H4       H        0.20920    0.35060    0.02860    1.000
    C9       C        0.34130    0.31780    0.94901    1.000
    C10      C        0.55660    0.36090    0.85317    1.000
    C11      C        0.43690    0.34900    0.87759    1.000
    C12      C        0.30980    0.36270    0.85309    1.000
    H5       H        0.29870    0.37840    0.82120    1.000
    C13      C        0.45240    0.32690    0.92592    1.000
    H6       H        0.53670    0.31820    0.94270    1.000
    C14      C        0.30180    0.18640    0.23687    1.000
    C15      C        0.06390    0.36900    0.84860    1.000
    C16      C        0.20020    0.35310    0.87613    1.000
    C17      C        0.21540    0.33070    0.92352    1.000
    H7       H        0.14120    0.32410    0.93860    1.000
    C18      C        0.35630    0.29780    0.99929    1.000
    N1       N        0.34020    0.29020    0.07474    1.000
    N2       N        0.44840    0.25150    0.06710    1.000
    N3       N        0.45830    0.25720    0.02130    1.000
    Co3      Co       0.29057    0.12384    0.33056    1.000
    Co4      Co       0.49174    0.04941    0.24436    1.000
    O9       O        0.83080    0.84560    0.62275    1.000
    O10      O        0.95740    0.88440    0.68870    1.000
    O11      O        0.28880    0.01261    0.33187    1.000
    O12      O        0.38080    0.96510    0.27057    1.000
    O13      O        0.22350    0.69990    0.22154    1.000
    O14      O        0.15890    0.62400    0.27706    1.000
    O15      O        0.44540    0.89390    0.69274    1.000
    O16      O        0.53390    0.85310    0.63057    1.000
    C19      C        0.32020    0.95930    0.30588    1.000
    C20      C        0.27740    0.88110    0.31955    1.000
    C21      C        0.26610    0.82150    0.28709    1.000
    H8       H        0.29110    0.82850    0.25690    1.000
    C22      C        0.21770    0.75110    0.29904    1.000
    C23      C        0.18270    0.73980    0.34487    1.000
    H9       H        0.15020    0.69310    0.35320    1.000
    C24      C        0.19700    0.79890    0.37756    1.000
    C25      C        0.24460    0.86970    0.36495    1.000
    H10      H        0.25420    0.90910    0.38720    1.000
    C26      C        0.21580    0.82010    0.46667    1.000
    H11      H        0.29080    0.85060    0.47140    1.000
    C27      C        0.15870    0.81780    0.55099    1.000
    C28      C        0.94340    0.86090    0.64683    1.000
    C29      C        0.06310    0.84900    0.62241    1.000
    C30      C        0.19020    0.86270    0.64691    1.000
    H12      H        0.20130    0.87840    0.67880    1.000
    C31      C        0.04760    0.82690    0.57408    1.000
    H13      H        0.96330    0.81820    0.55730    1.000
    C32      C        0.19820    0.68640    0.26313    1.000
    C33      C        0.43610    0.86900    0.65140    1.000
    C34      C        0.29980    0.85310    0.62387    1.000
    C35      C        0.28460    0.83070    0.57648    1.000
    H14      H        0.35880    0.82410    0.56140    1.000
    C36      C        0.14370    0.79780    0.50071    1.000
    N4       N        0.15980    0.79020    0.42526    1.000
    N5       N        0.05160    0.75150    0.43290    1.000
    N6       N        0.04170    0.75720    0.47870    1.000
    Co5      Co       0.79057    0.37616    0.83056    1.000
    Co6      Co       0.99174    0.45059    0.74436    1.000
    O17      O        0.33080    0.65440    0.12275    1.000
    O18      O        0.45740    0.61560    0.18870    1.000
    O19      O        0.78880    0.48739    0.83187    1.000
    O20      O        0.88080    0.53490    0.77057    1.000
    O21      O        0.72350    0.80010    0.72154    1.000
    O22      O        0.65890    0.87600    0.77706    1.000
    O23      O        0.94540    0.60610    0.19274    1.000
    O24      O        0.03390    0.64690    0.13057    1.000
    C37      C        0.82020    0.54070    0.80588    1.000
    C38      C        0.77740    0.61890    0.81955    1.000
    C39      C        0.76610    0.67850    0.78709    1.000
    H15      H        0.79110    0.67150    0.75690    1.000
    C40      C        0.71770    0.74890    0.79904    1.000
    C41      C        0.68270    0.76020    0.84487    1.000
    H16      H        0.65020    0.80690    0.85320    1.000
    C42      C        0.69700    0.70110    0.87756    1.000
    C43      C        0.74460    0.63030    0.86495    1.000
    H17      H        0.75420    0.59090    0.88720    1.000
    C44      C        0.71580    0.67990    0.96667    1.000
    H18      H        0.79080    0.64940    0.97140    1.000
    C45      C        0.65870    0.68220    0.05099    1.000
    C46      C        0.44340    0.63910    0.14683    1.000
    C47      C        0.56310    0.65100    0.12241    1.000
    C48      C        0.69020    0.63730    0.14691    1.000
    H19      H        0.70130    0.62160    0.17880    1.000
    C49      C        0.54760    0.67310    0.07408    1.000
    H20      H        0.46330    0.68180    0.05730    1.000
    C50      C        0.69820    0.81360    0.76313    1.000
    C51      C        0.93610    0.63100    0.15140    1.000
    C52      C        0.79980    0.64690    0.12387    1.000
    C53      C        0.78460    0.66930    0.07648    1.000
    H21      H        0.85880    0.67590    0.06140    1.000
    C54      C        0.64370    0.70220    0.00071    1.000
    N7       N        0.65980    0.70980    0.92526    1.000
    N8       N        0.55160    0.74850    0.93290    1.000
    N9       N        0.54170    0.74280    0.97870    1.000
    Co7      Co       0.70943    0.87616    0.66944    1.000
    Co8      Co       0.50826    0.95059    0.75564    1.000
    O25      O        0.16920    0.15440    0.37725    1.000
    O26      O        0.04260    0.11560    0.31130    1.000
    O27      O        0.71120    0.98739    0.66813    1.000
    O28      O        0.61920    0.03490    0.72943    1.000
    O29      O        0.77650    0.30010    0.77846    1.000
    O30      O        0.84110    0.37600    0.72294    1.000
    O31      O        0.55460    0.10610    0.30726    1.000
    O32      O        0.46610    0.14690    0.36943    1.000
    C55      C        0.67980    0.04070    0.69412    1.000
    C56      C        0.72260    0.11890    0.68045    1.000
    C57      C        0.73390    0.17850    0.71291    1.000
    H22      H        0.70890    0.17150    0.74310    1.000
    C58      C        0.78230    0.24890    0.70096    1.000
    C59      C        0.81730    0.26020    0.65513    1.000
    H23      H        0.84980    0.30690    0.64680    1.000
    C60      C        0.80300    0.20110    0.62244    1.000
    C61      C        0.75540    0.13030    0.63505    1.000
    H24      H        0.74580    0.09090    0.61280    1.000
    C62      C        0.78420    0.17990    0.53333    1.000
    H25      H        0.70920    0.14940    0.52860    1.000
    C63      C        0.84130    0.18220    0.44901    1.000
    C64      C        0.05660    0.13910    0.35317    1.000
    C65      C        0.93690    0.15100    0.37759    1.000
    C66      C        0.80980    0.13730    0.35309    1.000
    H26      H        0.79870    0.12160    0.32120    1.000
    C67      C        0.95240    0.17310    0.42592    1.000
    H27      H        0.03670    0.18180    0.44270    1.000
    C68      C        0.80180    0.31360    0.73687    1.000
    C69      C        0.56390    0.13100    0.34860    1.000
    C70      C        0.70020    0.14690    0.37613    1.000
    C71      C        0.71540    0.16930    0.42352    1.000
    H28      H        0.64120    0.17590    0.43860    1.000
    C72      C        0.85630    0.20220    0.49929    1.000
    N10      N        0.84020    0.20980    0.57474    1.000
    N11      N        0.94840    0.24850    0.56710    1.000
    N12      N        0.95830    0.24280    0.52130    1.000
