# CIF file generated by openbabel 3.1.0, see https://openbabel.org
data_I
_chemical_name_common 'EFOTAV_clean'
_cell_length_a 16.578
_cell_length_b 16.68
_cell_length_c 18.006
_cell_angle_alpha 90
_cell_angle_beta 90
_cell_angle_gamma 90
_space_group_name_H-M_alt 'P 1'
_space_group_name_Hall 'P 1'
loop_
    _symmetry_equiv_pos_as_xyz
    x,y,z
loop_
    _atom_site_label
    _atom_site_type_symbol
    _atom_site_fract_x
    _atom_site_fract_y
    _atom_site_fract_z
    _atom_site_occupancy
    Mn1      Mn       0.60533    0.87007    0.86865    1.000
    Mn2      Mn       0.39467    0.62993    0.36865    1.000
    Mn3      Mn       0.10533    0.12993    0.63135    1.000
    Mn4      Mn       0.89467    0.37007    0.13135    1.000
    Mn5      Mn       0.39467    0.12993    0.13135    1.000
    Mn6      Mn       0.60533    0.37007    0.63135    1.000
    Mn7      Mn       0.89467    0.87007    0.36865    1.000
    Mn8      Mn       0.10533    0.62993    0.86865    1.000
    Re1      Re       0.90102    0.96468    0.96669    1.000
    Re2      Re       0.04085    0.89787    0.99055    1.000
    Re3      Re       0.02968    0.02203    0.90379    1.000
    Re4      Re       0.09898    0.53532    0.46669    1.000
    Re5      Re       0.95915    0.60213    0.49055    1.000
    Re6      Re       0.97032    0.47797    0.40379    1.000
    Re7      Re       0.40102    0.03532    0.53331    1.000
    Re8      Re       0.54085    0.10213    0.50945    1.000
    Re9      Re       0.52968    0.97797    0.59621    1.000
    Re10     Re       0.59898    0.46468    0.03331    1.000
    Re11     Re       0.45915    0.39787    0.00945    1.000
    Re12     Re       0.47032    0.52203    0.09621    1.000
    Re13     Re       0.09898    0.03532    0.03331    1.000
    Re14     Re       0.95915    0.10213    0.00945    1.000
    Re15     Re       0.97032    0.97797    0.09621    1.000
    Re16     Re       0.90102    0.46468    0.53331    1.000
    Re17     Re       0.04085    0.39787    0.50945    1.000
    Re18     Re       0.02968    0.52203    0.59621    1.000
    Re19     Re       0.59898    0.96468    0.46669    1.000
    Re20     Re       0.45915    0.89787    0.49055    1.000
    Re21     Re       0.47032    0.02203    0.40379    1.000
    Re22     Re       0.40102    0.53532    0.96669    1.000
    Re23     Re       0.54085    0.60213    0.99055    1.000
    Re24     Re       0.52968    0.47797    0.90379    1.000
    C1       C        0.78830    0.92480    0.92500    1.000
    C2       C        0.08480    0.78040    0.97730    1.000
    C3       C        0.06620    0.04620    0.79160    1.000
    C4       C        0.21170    0.57520    0.42500    1.000
    C5       C        0.91520    0.71960    0.47730    1.000
    C6       C        0.93380    0.45380    0.29160    1.000
    C7       C        0.28830    0.07520    0.57500    1.000
    C8       C        0.58480    0.21960    0.52270    1.000
    C9       C        0.56620    0.95380    0.70840    1.000
    C10      C        0.71170    0.42480    0.07500    1.000
    C11      C        0.41520    0.28040    0.02270    1.000
    C12      C        0.43380    0.54620    0.20840    1.000
    C13      C        0.21170    0.07520    0.07500    1.000
    C14      C        0.91520    0.21960    0.02270    1.000
    C15      C        0.93380    0.95380    0.20840    1.000
    C16      C        0.78830    0.42480    0.57500    1.000
    C17      C        0.08480    0.28040    0.52270    1.000
    C18      C        0.06620    0.54620    0.70840    1.000
    C19      C        0.71170    0.92480    0.42500    1.000
    C20      C        0.41520    0.78040    0.47730    1.000
    C21      C        0.43380    0.04620    0.29160    1.000
    C22      C        0.28830    0.57520    0.92500    1.000
    C23      C        0.58480    0.71960    0.97730    1.000
    C24      C        0.56620    0.45380    0.79160    1.000
    S1       S        0.97470    0.89290    0.87200    1.000
    S2       S        0.89840    0.08280    0.88910    1.000
    S3       S        0.91880    0.85260    0.05010    1.000
    S4       S        0.84350    0.04070    0.06730    1.000
    S5       S        0.02530    0.60710    0.37200    1.000
    S6       S        0.10160    0.41720    0.38910    1.000
    S7       S        0.08120    0.64740    0.55010    1.000
    S8       S        0.15650    0.45930    0.56730    1.000
    S9       S        0.47470    0.10710    0.62800    1.000
    S10      S        0.39840    0.91720    0.61090    1.000
    S11      S        0.41880    0.14740    0.44990    1.000
    S12      S        0.34350    0.95930    0.43270    1.000
    S13      S        0.52530    0.39290    0.12800    1.000
    S14      S        0.60160    0.58280    0.11090    1.000
    S15      S        0.58120    0.35260    0.94990    1.000
    S16      S        0.65650    0.54070    0.93270    1.000
    S17      S        0.02530    0.10710    0.12800    1.000
    S18      S        0.10160    0.91720    0.11090    1.000
    S19      S        0.08120    0.14740    0.94990    1.000
    S20      S        0.15650    0.95930    0.93270    1.000
    S21      S        0.97470    0.39290    0.62800    1.000
    S22      S        0.89840    0.58280    0.61090    1.000
    S23      S        0.91880    0.35260    0.44990    1.000
    S24      S        0.84350    0.54070    0.43270    1.000
    S25      S        0.52530    0.89290    0.37200    1.000
    S26      S        0.60160    0.08280    0.38910    1.000
    S27      S        0.58120    0.85260    0.55010    1.000
    S28      S        0.65650    0.04070    0.56730    1.000
    S29      S        0.47470    0.60710    0.87200    1.000
    S30      S        0.39840    0.41720    0.88910    1.000
    S31      S        0.41880    0.64740    0.05010    1.000
    S32      S        0.34350    0.45930    0.06730    1.000
    N1       N        0.72920    0.90680    0.89870    1.000
    N2       N        0.10590    0.71480    0.96510    1.000
    N3       N        0.08640    0.06080    0.73410    1.000
    N4       N        0.27080    0.59320    0.39870    1.000
    N5       N        0.89410    0.78520    0.46510    1.000
    N6       N        0.91360    0.43920    0.23410    1.000
    N7       N        0.22920    0.09320    0.60130    1.000
    N8       N        0.60590    0.28520    0.53490    1.000
    N9       N        0.58640    0.93920    0.76590    1.000
    N10      N        0.77080    0.40680    0.10130    1.000
    N11      N        0.39410    0.21480    0.03490    1.000
    N12      N        0.41360    0.56080    0.26590    1.000
    N13      N        0.27080    0.09320    0.10130    1.000
    N14      N        0.89410    0.28520    0.03490    1.000
    N15      N        0.91360    0.93920    0.26590    1.000
    N16      N        0.72920    0.40680    0.60130    1.000
    N17      N        0.10590    0.21480    0.53490    1.000
    N18      N        0.08640    0.56080    0.76590    1.000
    N19      N        0.77080    0.90680    0.39870    1.000
    N20      N        0.39410    0.71480    0.46510    1.000
    N21      N        0.41360    0.06080    0.23410    1.000
    N22      N        0.22920    0.59320    0.89870    1.000
    N23      N        0.60590    0.78520    0.96510    1.000
    N24      N        0.58640    0.43920    0.73410    1.000
