# CIF file generated by openbabel 3.1.0, see https://openbabel.org
data_I
_chemical_name_common 'image0'
_cell_length_a 9.889
_cell_length_b 10.293
_cell_length_c 13.518
_cell_angle_alpha 82.04
_cell_angle_beta 86.67
_cell_angle_gamma 65.58
_space_group_name_H-M_alt 'P 1'
_space_group_name_Hall 'P 1'
loop_
    _symmetry_equiv_pos_as_xyz
    x,y,z
loop_
    _atom_site_label
    _atom_site_type_symbol
    _atom_site_fract_x
    _atom_site_fract_y
    _atom_site_fract_z
    _atom_site_occupancy
    Tb1      Tb       0.33381    0.21745    0.18326    1.000
    Mo1      Mo       0.74454    0.62429    0.24011    1.000
    O1       O        0.35140    0.44620    0.18560    1.000
    H1       H        0.45430    0.42420    0.20260    1.000
    N1       N        0.90460    0.33960    0.40690    1.000
    N2       N        0.74920    0.73660    0.45850    1.000
    N3       N        0.43390    0.61130    0.33270    1.000
    N4       N        0.48250    0.95600    0.21020    1.000
    N5       N        0.67800    0.37280    0.15020    1.000
    N6       N        0.29290    0.28100    0.00380    1.000
    N7       N        0.08180    0.41290    0.17280    1.000
    N8       N        0.94620    0.81640    0.20370    1.000
    C1       C        0.84320    0.43710    0.35090    1.000
    C2       C        0.74540    0.70120    0.38160    1.000
    C3       C        0.54210    0.61500    0.30430    1.000
    C4       C        0.57290    0.84150    0.22010    1.000
    C5       C        0.70330    0.46030    0.17960    1.000
    C6       C        0.28150    0.31240    0.91840    1.000
    C7       C        0.96330    0.49020    0.19080    1.000
    C8       C        0.87350    0.75300    0.21550    1.000
    C9       C        0.30680    0.56480    0.10590    1.000
    H2       H        0.38620    0.54970    0.05840    1.000
    H3       H        0.28410    0.65290    0.13310    1.000
    H4       H        0.22040    0.57040    0.07340    1.000
    Cs1      Cs       0.14923    0.55003    0.38406    1.000
    Tb2      Tb       0.66619    0.78255    0.81674    1.000
    Mo2      Mo       0.25546    0.37571    0.75989    1.000
    O2       O        0.64860    0.55380    0.81440    1.000
    H5       H        0.54570    0.57580    0.79740    1.000
    N9       N        0.09540    0.66040    0.59310    1.000
    N10      N        0.25080    0.26340    0.54150    1.000
    N11      N        0.56610    0.38870    0.66730    1.000
    N12      N        0.51750    0.04400    0.78980    1.000
    N13      N        0.32200    0.62720    0.84980    1.000
    N14      N        0.70710    0.71900    0.99620    1.000
    N15      N        0.91820    0.58710    0.82720    1.000
    N16      N        0.05380    0.18360    0.79630    1.000
    C10      C        0.15680    0.56290    0.64910    1.000
    C11      C        0.25460    0.29880    0.61840    1.000
    C12      C        0.45790    0.38500    0.69570    1.000
    C13      C        0.42710    0.15850    0.77990    1.000
    C14      C        0.29670    0.53970    0.82040    1.000
    C15      C        0.71850    0.68760    0.08160    1.000
    C16      C        0.03670    0.50980    0.80920    1.000
    C17      C        0.12650    0.24700    0.78450    1.000
    C18      C        0.69320    0.43520    0.89410    1.000
    H6       H        0.61380    0.45030    0.94160    1.000
    H7       H        0.71590    0.34710    0.86690    1.000
    H8       H        0.77960    0.42960    0.92660    1.000
    Cs2      Cs       0.85077    0.44997    0.61594    1.000
