# CIF file generated by openbabel 3.1.0, see https://openbabel.org
data_I
_chemical_name_common 'image0'
_cell_length_a 17.765
_cell_length_b 17.765
_cell_length_c 7.567
_cell_angle_alpha 90
_cell_angle_beta 90
_cell_angle_gamma 90
_space_group_name_H-M_alt 'P 1'
_space_group_name_Hall 'P 1'
loop_
    _symmetry_equiv_pos_as_xyz
    x,y,z
loop_
    _atom_site_label
    _atom_site_type_symbol
    _atom_site_fract_x
    _atom_site_fract_y
    _atom_site_fract_z
    _atom_site_occupancy
    N1       N        0.50030    0.09220    0.58620    1.000
    C1       C        0.55140    0.14680    0.58790    1.000
    H1       H        0.58690    0.14700    0.67820    1.000
    C2       C        0.55470    0.20370    0.46170    1.000
    H2       H        0.58980    0.24240    0.47030    1.000
    C3       C        0.50430    0.20090    0.32390    1.000
    C4       C        0.45020    0.14550    0.32410    1.000
    H3       H        0.41580    0.14240    0.23180    1.000
    C5       C        0.44720    0.09470    0.46150    1.000
    H4       H        0.40700    0.06130    0.46770    1.000
    N2       N        0.51260    0.26080    0.19630    1.000
    N3       N        0.49010    0.24000    0.04790    1.000
    C6       C        0.54960    0.40800    0.79770    1.000
    H5       H        0.58240    0.44830    0.81310    1.000
    C7       C        0.55350    0.34930    0.91400    1.000
    H6       H        0.59380    0.34460    0.99170    1.000
    C8       C        0.49630    0.29790    0.91280    1.000
    C9       C        0.44310    0.30100    0.78210    1.000
    H7       H        0.40460    0.26560    0.77670    1.000
    C10      C        0.44820    0.35740    0.65960    1.000
    H8       H        0.41290    0.35910    0.56890    1.000
    N4       N        0.50180    0.41030    0.66500    1.000
    N5       N        0.00030    0.59220    0.08620    1.000
    C11      C        0.05140    0.64680    0.08790    1.000
    H9       H        0.08690    0.64700    0.17820    1.000
    C12      C        0.05470    0.70370    0.96170    1.000
    H10      H        0.08980    0.74240    0.97030    1.000
    C13      C        0.00430    0.70090    0.82390    1.000
    C14      C        0.95020    0.64550    0.82410    1.000
    H11      H        0.91580    0.64240    0.73180    1.000
    C15      C        0.94720    0.59470    0.96150    1.000
    H12      H        0.90700    0.56130    0.96770    1.000
    N6       N        0.01260    0.76080    0.69630    1.000
    N7       N        0.99010    0.74000    0.54790    1.000
    C16      C        0.04960    0.90800    0.29770    1.000
    H13      H        0.08240    0.94830    0.31310    1.000
    C17      C        0.05350    0.84930    0.41400    1.000
    H14      H        0.09380    0.84460    0.49170    1.000
    C18      C        0.99630    0.79790    0.41280    1.000
    C19      C        0.94310    0.80100    0.28210    1.000
    H15      H        0.90460    0.76560    0.27670    1.000
    C20      C        0.94820    0.85740    0.15960    1.000
    H16      H        0.91290    0.85910    0.06890    1.000
    N8       N        0.00180    0.91030    0.16500    1.000
    N9       N        0.49970    0.90780    0.58620    1.000
    C21      C        0.44860    0.85320    0.58790    1.000
    H17      H        0.41310    0.85300    0.67820    1.000
    C22      C        0.44530    0.79630    0.46170    1.000
    H18      H        0.41020    0.75760    0.47030    1.000
    C23      C        0.49570    0.79910    0.32390    1.000
    C24      C        0.54980    0.85450    0.32410    1.000
    H19      H        0.58420    0.85760    0.23180    1.000
    C25      C        0.55280    0.90530    0.46150    1.000
    H20      H        0.59300    0.93870    0.46770    1.000
    N10      N        0.48740    0.73920    0.19630    1.000
    N11      N        0.50990    0.76000    0.04790    1.000
    C26      C        0.45040    0.59200    0.79770    1.000
    H21      H        0.41760    0.55170    0.81310    1.000
    C27      C        0.44650    0.65070    0.91400    1.000
    H22      H        0.40620    0.65540    0.99170    1.000
    C28      C        0.50370    0.70210    0.91280    1.000
    C29      C        0.55690    0.69900    0.78210    1.000
    H23      H        0.59540    0.73440    0.77670    1.000
    C30      C        0.55180    0.64260    0.65960    1.000
    H24      H        0.58710    0.64090    0.56890    1.000
    N12      N        0.49820    0.58970    0.66500    1.000
    N13      N        0.99970    0.40780    0.08620    1.000
    C31      C        0.94860    0.35320    0.08790    1.000
    H25      H        0.91310    0.35300    0.17820    1.000
    C32      C        0.94530    0.29630    0.96170    1.000
    H26      H        0.91020    0.25760    0.97030    1.000
    C33      C        0.99570    0.29910    0.82390    1.000
    C34      C        0.04980    0.35450    0.82410    1.000
    H27      H        0.08420    0.35760    0.73180    1.000
    C35      C        0.05280    0.40530    0.96150    1.000
    H28      H        0.09300    0.43870    0.96770    1.000
    N14      N        0.98740    0.23920    0.69630    1.000
    N15      N        0.00990    0.26000    0.54790    1.000
    C36      C        0.95040    0.09200    0.29770    1.000
    H29      H        0.91760    0.05170    0.31310    1.000
    C37      C        0.94650    0.15070    0.41400    1.000
    H30      H        0.90620    0.15540    0.49170    1.000
    C38      C        0.00370    0.20210    0.41280    1.000
    C39      C        0.05690    0.19900    0.28210    1.000
    H31      H        0.09540    0.23440    0.27670    1.000
    C40      C        0.05180    0.14260    0.15960    1.000
    H32      H        0.08710    0.14090    0.06890    1.000
    N16      N        0.99820    0.08970    0.16500    1.000
    N17      N        0.09220    0.49970    0.41380    1.000
    C41      C        0.14680    0.44860    0.41210    1.000
    H33      H        0.14700    0.41310    0.32180    1.000
    C42      C        0.20370    0.44530    0.53830    1.000
    H34      H        0.24240    0.41020    0.52970    1.000
    C43      C        0.20090    0.49570    0.67610    1.000
    C44      C        0.14550    0.54980    0.67590    1.000
    H35      H        0.14240    0.58420    0.76820    1.000
    C45      C        0.09470    0.55280    0.53850    1.000
    H36      H        0.06130    0.59300    0.53230    1.000
    N18      N        0.26080    0.48740    0.80370    1.000
    N19      N        0.24000    0.50990    0.95210    1.000
    C46      C        0.40800    0.45040    0.20230    1.000
    H37      H        0.44830    0.41760    0.18690    1.000
    C47      C        0.34930    0.44650    0.08600    1.000
    H38      H        0.34460    0.40620    0.00830    1.000
    C48      C        0.29790    0.50370    0.08720    1.000
    C49      C        0.30100    0.55690    0.21790    1.000
    H39      H        0.26560    0.59540    0.22330    1.000
    C50      C        0.35740    0.55180    0.34040    1.000
    H40      H        0.35910    0.58710    0.43110    1.000
    N20      N        0.41030    0.49820    0.33500    1.000
    N21      N        0.59220    0.99970    0.91380    1.000
    C51      C        0.64680    0.94860    0.91210    1.000
    H41      H        0.64700    0.91310    0.82180    1.000
    C52      C        0.70370    0.94530    0.03830    1.000
    H42      H        0.74240    0.91020    0.02970    1.000
    C53      C        0.70090    0.99570    0.17610    1.000
    C54      C        0.64550    0.04980    0.17590    1.000
    H43      H        0.64240    0.08420    0.26820    1.000
    C55      C        0.59470    0.05280    0.03850    1.000
    H44      H        0.56130    0.09300    0.03230    1.000
    N22      N        0.76080    0.98740    0.30370    1.000
    N23      N        0.74000    0.00990    0.45210    1.000
    C56      C        0.90800    0.95040    0.70230    1.000
    H45      H        0.94830    0.91760    0.68690    1.000
    C57      C        0.84930    0.94650    0.58600    1.000
    H46      H        0.84460    0.90620    0.50830    1.000
    C58      C        0.79790    0.00370    0.58720    1.000
    C59      C        0.80100    0.05690    0.71790    1.000
    H47      H        0.76560    0.09540    0.72330    1.000
    C60      C        0.85740    0.05180    0.84040    1.000
    H48      H        0.85910    0.08710    0.93110    1.000
    N24      N        0.91030    0.99820    0.83500    1.000
    N25      N        0.90780    0.50030    0.41380    1.000
    C61      C        0.85320    0.55140    0.41210    1.000
    H49      H        0.85300    0.58690    0.32180    1.000
    C62      C        0.79630    0.55470    0.53830    1.000
    H50      H        0.75760    0.58980    0.52970    1.000
    C63      C        0.79910    0.50430    0.67610    1.000
    C64      C        0.85450    0.45020    0.67590    1.000
    H51      H        0.85760    0.41580    0.76820    1.000
    C65      C        0.90530    0.44720    0.53850    1.000
    H52      H        0.93870    0.40700    0.53230    1.000
    N26      N        0.73920    0.51260    0.80370    1.000
    N27      N        0.76000    0.49010    0.95210    1.000
    C66      C        0.59200    0.54960    0.20230    1.000
    H53      H        0.55170    0.58240    0.18690    1.000
    C67      C        0.65070    0.55350    0.08600    1.000
    H54      H        0.65540    0.59380    0.00830    1.000
    C68      C        0.70210    0.49630    0.08720    1.000
    C69      C        0.69900    0.44310    0.21790    1.000
    H55      H        0.73440    0.40460    0.22330    1.000
    C70      C        0.64260    0.44820    0.34040    1.000
    H56      H        0.64090    0.41290    0.43110    1.000
    N28      N        0.58970    0.50180    0.33500    1.000
    N29      N        0.40780    0.00030    0.91380    1.000
    C71      C        0.35320    0.05140    0.91210    1.000
    H57      H        0.35300    0.08690    0.82180    1.000
    C72      C        0.29630    0.05470    0.03830    1.000
    H58      H        0.25760    0.08980    0.02970    1.000
    C73      C        0.29910    0.00430    0.17610    1.000
    C74      C        0.35450    0.95020    0.17590    1.000
    H59      H        0.35760    0.91580    0.26820    1.000
    C75      C        0.40530    0.94720    0.03850    1.000
    H60      H        0.43870    0.90700    0.03230    1.000
    N30      N        0.23920    0.01260    0.30370    1.000
    N31      N        0.26000    0.99010    0.45210    1.000
    C76      C        0.09200    0.04960    0.70230    1.000
    H61      H        0.05170    0.08240    0.68690    1.000
    C77      C        0.15070    0.05350    0.58600    1.000
    H62      H        0.15540    0.09380    0.50830    1.000
    C78      C        0.20210    0.99630    0.58720    1.000
    C79      C        0.19900    0.94310    0.71790    1.000
    H63      H        0.23440    0.90460    0.72330    1.000
    C80      C        0.14260    0.94820    0.84040    1.000
    H64      H        0.14090    0.91290    0.93110    1.000
    N32      N        0.08970    0.00180    0.83500    1.000
    Cu1      Cu       0.50000    0.00000    0.75000    1.000
    Cu2      Cu       0.00000    0.50000    0.25000    1.000
    Cu3      Cu       0.50000    0.50000    0.50000    1.000
    Cu4      Cu       0.00000    0.00000    0.00000    1.000
