# CIF file generated by openbabel 3.1.0, see https://openbabel.org
data_I
_chemical_name_common 'image0'
_cell_length_a 35.0241
_cell_length_b 13.3396
_cell_length_c 9.1834
_cell_angle_alpha 90
_cell_angle_beta 104.116
_cell_angle_gamma 90
_space_group_name_H-M_alt 'P 1'
_space_group_name_Hall 'P 1'
loop_
    _symmetry_equiv_pos_as_xyz
    x,y,z
loop_
    _atom_site_label
    _atom_site_type_symbol
    _atom_site_fract_x
    _atom_site_fract_y
    _atom_site_fract_z
    _atom_site_occupancy
    Ni1      Ni       0.36843    0.21665    0.04755    1.000
    C1       C        0.34988    0.20450    0.35110    1.000
    H1       H        0.37630    0.18640    0.38250    1.000
    N1       N        0.33481    0.22200    0.20420    1.000
    O1       O        0.36746    0.36630    0.75790    1.000
    O2       O        0.17504    0.63060    0.58710    1.000
    O3       O        0.33864    0.33950    0.94760    1.000
    O4       O        0.13924    0.55510    0.72520    1.000
    N2       N        0.41153    0.30350    0.19070    1.000
    N3       N        0.26805    0.24160    0.52510    1.000
    C2       C        0.30689    0.44580    0.75040    1.000
    H2       H        0.30850    0.48100    0.66470    1.000
    C3       C        0.20706    0.51660    0.77270    1.000
    H3       H        0.20610    0.48390    0.86110    1.000
    C4       C        0.29636    0.24690    0.16130    1.000
    H4       H        0.28550    0.25950    0.06010    1.000
    C5       C        0.28884    0.23650    0.41000    1.000
    C6       C        0.27235    0.25470    0.25880    1.000
    H5       H        0.24590    0.27160    0.22470    1.000
    C7       C        0.27523    0.45680    0.80230    1.000
    H6       H        0.27530    0.42690    0.89380    1.000
    C8       C        0.32853    0.21200    0.45680    1.000
    H7       H        0.34030    0.20090    0.55780    1.000
    C9       C        0.17148    0.57150    0.68880    1.000
    C10      C        0.34049    0.37880    0.82380    1.000
    C11      C        0.24021    0.51240    0.72690    1.000
    H8       H        0.24110    0.54740    0.64030    1.000
    C12      C        0.43380    0.45880    0.30900    1.000
    H9       H        0.42930    0.52680    0.31930    1.000
    C13      C        0.46740    0.41440    0.39060    1.000
    C14      C        0.40645    0.39970    0.21000    1.000
    H10      H        0.38350    0.42980    0.15490    1.000
    N4       N        0.50380    0.45990    0.51450    1.000
    C15      C        0.47305    0.31450    0.37380    1.000
    H11      H        0.49550    0.28260    0.43000    1.000
    C16      C        0.44495    0.26160    0.27190    1.000
    H12      H        0.44920    0.19380    0.25850    1.000
    Ni2      Ni       0.86843    0.71665    0.04755    1.000
    C17      C        0.84988    0.70450    0.35110    1.000
    H13      H        0.87630    0.68640    0.38250    1.000
    N5       N        0.83481    0.72200    0.20420    1.000
    O5       O        0.86746    0.86630    0.75790    1.000
    O6       O        0.67504    0.13060    0.58710    1.000
    O7       O        0.83864    0.83950    0.94760    1.000
    O8       O        0.63924    0.05510    0.72520    1.000
    N6       N        0.91153    0.80350    0.19070    1.000
    N7       N        0.76805    0.74160    0.52510    1.000
    C18      C        0.80689    0.94580    0.75040    1.000
    H14      H        0.80850    0.98100    0.66470    1.000
    C19      C        0.70706    0.01660    0.77270    1.000
    H15      H        0.70610    0.98390    0.86110    1.000
    C20      C        0.79636    0.74690    0.16130    1.000
    H16      H        0.78550    0.75950    0.06010    1.000
    C21      C        0.78884    0.73650    0.41000    1.000
    C22      C        0.77235    0.75470    0.25880    1.000
    H17      H        0.74590    0.77160    0.22470    1.000
    C23      C        0.77523    0.95680    0.80230    1.000
    H18      H        0.77530    0.92690    0.89380    1.000
    C24      C        0.82853    0.71200    0.45680    1.000
    H19      H        0.84030    0.70090    0.55780    1.000
    C25      C        0.67148    0.07150    0.68880    1.000
    C26      C        0.84049    0.87880    0.82380    1.000
    C27      C        0.74021    0.01240    0.72690    1.000
    H20      H        0.74110    0.04740    0.64030    1.000
    C28      C        0.93380    0.95880    0.30900    1.000
    H21      H        0.92930    0.02680    0.31930    1.000
    C29      C        0.96740    0.91440    0.39060    1.000
    C30      C        0.90645    0.89970    0.21000    1.000
    H22      H        0.88350    0.92980    0.15490    1.000
    N8       N        0.00380    0.95990    0.51450    1.000
    C31      C        0.97305    0.81450    0.37380    1.000
    H23      H        0.99550    0.78260    0.43000    1.000
    C32      C        0.94495    0.76160    0.27190    1.000
    H24      H        0.94920    0.69380    0.25850    1.000
    Ni3      Ni       0.63157    0.21665    0.45245    1.000
    C33      C        0.65012    0.20450    0.14890    1.000
    H25      H        0.62370    0.18640    0.11750    1.000
    N9       N        0.66519    0.22200    0.29580    1.000
    O9       O        0.63254    0.36630    0.74210    1.000
    O10      O        0.82496    0.63060    0.91290    1.000
    O11      O        0.66136    0.33950    0.55240    1.000
    O12      O        0.86076    0.55510    0.77480    1.000
    N10      N        0.58847    0.30350    0.30930    1.000
    N11      N        0.73195    0.24160    0.97490    1.000
    C34      C        0.69311    0.44580    0.74960    1.000
    H26      H        0.69150    0.48100    0.83530    1.000
    C35      C        0.79294    0.51660    0.72730    1.000
    H27      H        0.79390    0.48390    0.63890    1.000
    C36      C        0.70364    0.24690    0.33870    1.000
    H28      H        0.71450    0.25950    0.43990    1.000
    C37      C        0.71116    0.23650    0.09000    1.000
    C38      C        0.72765    0.25470    0.24120    1.000
    H29      H        0.75410    0.27160    0.27530    1.000
    C39      C        0.72477    0.45680    0.69770    1.000
    H30      H        0.72470    0.42690    0.60620    1.000
    C40      C        0.67147    0.21200    0.04320    1.000
    H31      H        0.65970    0.20090    0.94220    1.000
    C41      C        0.82852    0.57150    0.81120    1.000
    C42      C        0.65951    0.37880    0.67620    1.000
    C43      C        0.75979    0.51240    0.77310    1.000
    H32      H        0.75890    0.54740    0.85970    1.000
    C44      C        0.56620    0.45880    0.19100    1.000
    H33      H        0.57070    0.52680    0.18070    1.000
    C45      C        0.53260    0.41440    0.10940    1.000
    C46      C        0.59355    0.39970    0.29000    1.000
    H34      H        0.61650    0.42980    0.34510    1.000
    N12      N        0.49620    0.45990    0.98550    1.000
    C47      C        0.52695    0.31450    0.12620    1.000
    H35      H        0.50450    0.28260    0.07000    1.000
    C48      C        0.55505    0.26160    0.22810    1.000
    H36      H        0.55080    0.19380    0.24150    1.000
    Ni4      Ni       0.13157    0.71665    0.45245    1.000
    C49      C        0.15012    0.70450    0.14890    1.000
    H37      H        0.12370    0.68640    0.11750    1.000
    N13      N        0.16519    0.72200    0.29580    1.000
    O13      O        0.13254    0.86630    0.74210    1.000
    O14      O        0.32496    0.13060    0.91290    1.000
    O15      O        0.16136    0.83950    0.55240    1.000
    O16      O        0.36076    0.05510    0.77480    1.000
    N14      N        0.08847    0.80350    0.30930    1.000
    N15      N        0.23195    0.74160    0.97490    1.000
    C50      C        0.19311    0.94580    0.74960    1.000
    H38      H        0.19150    0.98100    0.83530    1.000
    C51      C        0.29294    0.01660    0.72730    1.000
    H39      H        0.29390    0.98390    0.63890    1.000
    C52      C        0.20364    0.74690    0.33870    1.000
    H40      H        0.21450    0.75950    0.43990    1.000
    C53      C        0.21116    0.73650    0.09000    1.000
    C54      C        0.22765    0.75470    0.24120    1.000
    H41      H        0.25410    0.77160    0.27530    1.000
    C55      C        0.22477    0.95680    0.69770    1.000
    H42      H        0.22470    0.92690    0.60620    1.000
    C56      C        0.17147    0.71200    0.04320    1.000
    H43      H        0.15970    0.70090    0.94220    1.000
    C57      C        0.32852    0.07150    0.81120    1.000
    C58      C        0.15951    0.87880    0.67620    1.000
    C59      C        0.25979    0.01240    0.77310    1.000
    H44      H        0.25890    0.04740    0.85970    1.000
    C60      C        0.06620    0.95880    0.19100    1.000
    H45      H        0.07070    0.02680    0.18070    1.000
    C61      C        0.03260    0.91440    0.10940    1.000
    C62      C        0.09355    0.89970    0.29000    1.000
    H46      H        0.11650    0.92980    0.34510    1.000
    N16      N        0.99620    0.95990    0.98550    1.000
    C63      C        0.02695    0.81450    0.12620    1.000
    H47      H        0.00450    0.78260    0.07000    1.000
    C64      C        0.05505    0.76160    0.22810    1.000
    H48      H        0.05080    0.69380    0.24150    1.000
    Ni5      Ni       0.63157    0.78335    0.95245    1.000
    C65      C        0.65012    0.79550    0.64890    1.000
    H49      H        0.62370    0.81360    0.61750    1.000
    N17      N        0.66519    0.77800    0.79580    1.000
    O17      O        0.63254    0.63370    0.24210    1.000
    O18      O        0.82496    0.36940    0.41290    1.000
    O19      O        0.66136    0.66050    0.05240    1.000
    O20      O        0.86076    0.44490    0.27480    1.000
    N18      N        0.58847    0.69650    0.80930    1.000
    N19      N        0.73195    0.75840    0.47490    1.000
    C66      C        0.69311    0.55420    0.24960    1.000
    H50      H        0.69150    0.51900    0.33530    1.000
    C67      C        0.79294    0.48340    0.22730    1.000
    H51      H        0.79390    0.51610    0.13890    1.000
    C68      C        0.70364    0.75310    0.83870    1.000
    H52      H        0.71450    0.74050    0.93990    1.000
    C69      C        0.71116    0.76350    0.59000    1.000
    C70      C        0.72765    0.74530    0.74120    1.000
    H53      H        0.75410    0.72840    0.77530    1.000
    C71      C        0.72477    0.54320    0.19770    1.000
    H54      H        0.72470    0.57310    0.10620    1.000
    C72      C        0.67147    0.78800    0.54320    1.000
    H55      H        0.65970    0.79910    0.44220    1.000
    C73      C        0.82852    0.42850    0.31120    1.000
    C74      C        0.65951    0.62120    0.17620    1.000
    C75      C        0.75979    0.48760    0.27310    1.000
    H56      H        0.75890    0.45260    0.35970    1.000
    C76      C        0.56620    0.54120    0.69100    1.000
    H57      H        0.57070    0.47320    0.68070    1.000
    C77      C        0.53260    0.58560    0.60940    1.000
    C78      C        0.59355    0.60030    0.79000    1.000
    H58      H        0.61650    0.57020    0.84510    1.000
    N20      N        0.49620    0.54010    0.48550    1.000
    C79      C        0.52695    0.68550    0.62620    1.000
    H59      H        0.50450    0.71740    0.57000    1.000
    C80      C        0.55505    0.73840    0.72810    1.000
    H60      H        0.55080    0.80620    0.74150    1.000
    Ni6      Ni       0.13157    0.28335    0.95245    1.000
    C81      C        0.15012    0.29550    0.64890    1.000
    H61      H        0.12370    0.31360    0.61750    1.000
    N21      N        0.16519    0.27800    0.79580    1.000
    O21      O        0.13254    0.13370    0.24210    1.000
    O22      O        0.32496    0.86940    0.41290    1.000
    O23      O        0.16136    0.16050    0.05240    1.000
    O24      O        0.36076    0.94490    0.27480    1.000
    N22      N        0.08847    0.19650    0.80930    1.000
    N23      N        0.23195    0.25840    0.47490    1.000
    C82      C        0.19311    0.05420    0.24960    1.000
    H62      H        0.19150    0.01900    0.33530    1.000
    C83      C        0.29294    0.98340    0.22730    1.000
    H63      H        0.29390    0.01610    0.13890    1.000
    C84      C        0.20364    0.25310    0.83870    1.000
    H64      H        0.21450    0.24050    0.93990    1.000
    C85      C        0.21116    0.26350    0.59000    1.000
    C86      C        0.22765    0.24530    0.74120    1.000
    H65      H        0.25410    0.22840    0.77530    1.000
    C87      C        0.22477    0.04320    0.19770    1.000
    H66      H        0.22470    0.07310    0.10620    1.000
    C88      C        0.17147    0.28800    0.54320    1.000
    H67      H        0.15970    0.29910    0.44220    1.000
    C89      C        0.32852    0.92850    0.31120    1.000
    C90      C        0.15951    0.12120    0.17620    1.000
    C91      C        0.25979    0.98760    0.27310    1.000
    H68      H        0.25890    0.95260    0.35970    1.000
    C92      C        0.06620    0.04120    0.69100    1.000
    H69      H        0.07070    0.97320    0.68070    1.000
    C93      C        0.03260    0.08560    0.60940    1.000
    C94      C        0.09355    0.10030    0.79000    1.000
    H70      H        0.11650    0.07020    0.84510    1.000
    N24      N        0.99620    0.04010    0.48550    1.000
    C95      C        0.02695    0.18550    0.62620    1.000
    H71      H        0.00450    0.21740    0.57000    1.000
    C96      C        0.05505    0.23840    0.72810    1.000
    H72      H        0.05080    0.30620    0.74150    1.000
    Ni7      Ni       0.36843    0.78335    0.54755    1.000
    C97      C        0.34988    0.79550    0.85110    1.000
    H73      H        0.37630    0.81360    0.88250    1.000
    N25      N        0.33481    0.77800    0.70420    1.000
    O25      O        0.36746    0.63370    0.25790    1.000
    O26      O        0.17504    0.36940    0.08710    1.000
    O27      O        0.33864    0.66050    0.44760    1.000
    O28      O        0.13924    0.44490    0.22520    1.000
    N26      N        0.41153    0.69650    0.69070    1.000
    N27      N        0.26805    0.75840    0.02510    1.000
    C98      C        0.30689    0.55420    0.25040    1.000
    H74      H        0.30850    0.51900    0.16470    1.000
    C99      C        0.20706    0.48340    0.27270    1.000
    H75      H        0.20610    0.51610    0.36110    1.000
    C100     C        0.29636    0.75310    0.66130    1.000
    H76      H        0.28550    0.74050    0.56010    1.000
    C101     C        0.28884    0.76350    0.91000    1.000
    C102     C        0.27235    0.74530    0.75880    1.000
    H77      H        0.24590    0.72840    0.72470    1.000
    C103     C        0.27523    0.54320    0.30230    1.000
    H78      H        0.27530    0.57310    0.39380    1.000
    C104     C        0.32853    0.78800    0.95680    1.000
    H79      H        0.34030    0.79910    0.05780    1.000
    C105     C        0.17148    0.42850    0.18880    1.000
    C106     C        0.34049    0.62120    0.32380    1.000
    C107     C        0.24021    0.48760    0.22690    1.000
    H80      H        0.24110    0.45260    0.14030    1.000
    C108     C        0.43380    0.54120    0.80900    1.000
    H81      H        0.42930    0.47320    0.81930    1.000
    C109     C        0.46740    0.58560    0.89060    1.000
    C110     C        0.40645    0.60030    0.71000    1.000
    H82      H        0.38350    0.57020    0.65490    1.000
    N28      N        0.50380    0.54010    0.01450    1.000
    C111     C        0.47305    0.68550    0.87380    1.000
    H83      H        0.49550    0.71740    0.93000    1.000
    C112     C        0.44495    0.73840    0.77190    1.000
    H84      H        0.44920    0.80620    0.75850    1.000
    Ni8      Ni       0.86843    0.28335    0.54755    1.000
    C113     C        0.84988    0.29550    0.85110    1.000
    H85      H        0.87630    0.31360    0.88250    1.000
    N29      N        0.83481    0.27800    0.70420    1.000
    O29      O        0.86746    0.13370    0.25790    1.000
    O30      O        0.67504    0.86940    0.08710    1.000
    O31      O        0.83864    0.16050    0.44760    1.000
    O32      O        0.63924    0.94490    0.22520    1.000
    N30      N        0.91153    0.19650    0.69070    1.000
    N31      N        0.76805    0.25840    0.02510    1.000
    C114     C        0.80689    0.05420    0.25040    1.000
    H86      H        0.80850    0.01900    0.16470    1.000
    C115     C        0.70706    0.98340    0.27270    1.000
    H87      H        0.70610    0.01610    0.36110    1.000
    C116     C        0.79636    0.25310    0.66130    1.000
    H88      H        0.78550    0.24050    0.56010    1.000
    C117     C        0.78884    0.26350    0.91000    1.000
    C118     C        0.77235    0.24530    0.75880    1.000
    H89      H        0.74590    0.22840    0.72470    1.000
    C119     C        0.77523    0.04320    0.30230    1.000
    H90      H        0.77530    0.07310    0.39380    1.000
    C120     C        0.82853    0.28800    0.95680    1.000
    H91      H        0.84030    0.29910    0.05780    1.000
    C121     C        0.67148    0.92850    0.18880    1.000
    C122     C        0.84049    0.12120    0.32380    1.000
    C123     C        0.74021    0.98760    0.22690    1.000
    H92      H        0.74110    0.95260    0.14030    1.000
    C124     C        0.93380    0.04120    0.80900    1.000
    H93      H        0.92930    0.97320    0.81930    1.000
    C125     C        0.96740    0.08560    0.89060    1.000
    C126     C        0.90645    0.10030    0.71000    1.000
    H94      H        0.88350    0.07020    0.65490    1.000
    N32      N        0.00380    0.04010    0.01450    1.000
    C127     C        0.97305    0.18550    0.87380    1.000
    H95      H        0.99550    0.21740    0.93000    1.000
    C128     C        0.94495    0.23840    0.77190    1.000
    H96      H        0.94920    0.30620    0.75850    1.000
