# CIF file generated by openbabel 3.1.0, see https://openbabel.org
data_I
_chemical_name_common 'ITIWIS_charged'
_cell_length_a 15.8746
_cell_length_b 15.8746
_cell_length_c 21.497
_cell_angle_alpha 90
_cell_angle_beta 90
_cell_angle_gamma 90
_space_group_name_H-M_alt 'P 1'
_space_group_name_Hall 'P 1'
loop_
    _symmetry_equiv_pos_as_xyz
    x,y,z
loop_
    _atom_site_label
    _atom_site_type_symbol
    _atom_site_fract_x
    _atom_site_fract_y
    _atom_site_fract_z
    _atom_site_occupancy
    Cd1      Cd       0.05914    0.05914    0.00000    1.000
    Cd2      Cd       0.94086    0.94086    0.50000    1.000
    Cd3      Cd       0.44086    0.55914    0.25000    1.000
    Cd4      Cd       0.55914    0.44086    0.75000    1.000
    H1       H        0.38790    0.53840    0.09850    1.000
    H2       H        0.28620    0.59000    0.03090    1.000
    H3       H        0.25740    0.78810    0.14790    1.000
    H4       H        0.35830    0.73060    0.21050    1.000
    H5       H        0.20090    0.65350    0.96740    1.000
    H6       H        0.08680    0.70360    0.91250    1.000
    H7       H        0.99420    0.80100    0.95710    1.000
    H8       H        0.13780    0.80300    0.11250    1.000
    H9       H        0.87660    0.04760    0.20890    1.000
    H10      H        0.76760    0.06650    0.27940    1.000
    H11      H        0.66140    0.96530    0.28880    1.000
    H12      H        0.77620    0.82590    0.15600    1.000
    H13      H        0.60660    0.84540    0.31710    1.000
    H14      H        0.51300    0.73400    0.32740    1.000
    H15      H        0.55340    0.66320    0.15460    1.000
    H16      H        0.64990    0.77180    0.14060    1.000
    H17      H        0.96870    0.74650    0.14610    1.000
    H18      H        0.90290    0.74020    0.09720    1.000
    H19      H        0.61210    0.46160    0.59850    1.000
    H20      H        0.71380    0.41000    0.53090    1.000
    H21      H        0.74260    0.21190    0.64790    1.000
    H22      H        0.64170    0.26940    0.71050    1.000
    H23      H        0.79910    0.34650    0.46740    1.000
    H24      H        0.91320    0.29640    0.41250    1.000
    H25      H        0.00580    0.19900    0.45710    1.000
    H26      H        0.86220    0.19700    0.61250    1.000
    H27      H        0.12340    0.95240    0.70890    1.000
    H28      H        0.23240    0.93350    0.77940    1.000
    H29      H        0.33860    0.03470    0.78880    1.000
    H30      H        0.22380    0.17410    0.65600    1.000
    H31      H        0.39340    0.15460    0.81710    1.000
    H32      H        0.48700    0.26600    0.82740    1.000
    H33      H        0.44660    0.33680    0.65460    1.000
    H34      H        0.35010    0.22820    0.64060    1.000
    H35      H        0.03130    0.25350    0.64610    1.000
    H36      H        0.09710    0.25980    0.59720    1.000
    H37      H        0.96160    0.88790    0.34850    1.000
    H38      H        0.91000    0.78620    0.28090    1.000
    H39      H        0.71190    0.75740    0.39790    1.000
    H40      H        0.76940    0.85830    0.46050    1.000
    H41      H        0.84650    0.70090    0.21740    1.000
    H42      H        0.79640    0.58680    0.16250    1.000
    H43      H        0.69900    0.49420    0.20710    1.000
    H44      H        0.69700    0.63780    0.36250    1.000
    H45      H        0.45240    0.37660    0.45890    1.000
    H46      H        0.43350    0.26760    0.52940    1.000
    H47      H        0.53470    0.16140    0.53880    1.000
    H48      H        0.67410    0.27620    0.40600    1.000
    H49      H        0.65460    0.10660    0.56710    1.000
    H50      H        0.76600    0.01300    0.57740    1.000
    H51      H        0.83680    0.05340    0.40460    1.000
    H52      H        0.72820    0.14990    0.39060    1.000
    H53      H        0.75350    0.46870    0.39610    1.000
    H54      H        0.75980    0.40290    0.34720    1.000
    H55      H        0.03840    0.11210    0.84850    1.000
    H56      H        0.09000    0.21380    0.78090    1.000
    H57      H        0.28810    0.24260    0.89790    1.000
    H58      H        0.23060    0.14170    0.96050    1.000
    H59      H        0.15350    0.29910    0.71740    1.000
    H60      H        0.20360    0.41320    0.66250    1.000
    H61      H        0.30100    0.50580    0.70710    1.000
    H62      H        0.30300    0.36220    0.86250    1.000
    H63      H        0.54760    0.62340    0.95890    1.000
    H64      H        0.56650    0.73240    0.02940    1.000
    H65      H        0.46530    0.83860    0.03880    1.000
    H66      H        0.32590    0.72380    0.90600    1.000
    H67      H        0.34540    0.89340    0.06710    1.000
    H68      H        0.23400    0.98700    0.07740    1.000
    H69      H        0.16320    0.94660    0.90460    1.000
    H70      H        0.27180    0.85010    0.89060    1.000
    H71      H        0.24650    0.53130    0.89610    1.000
    H72      H        0.24020    0.59710    0.84720    1.000
    H73      H        0.11210    0.03840    0.15150    1.000
    H74      H        0.21380    0.09000    0.21910    1.000
    H75      H        0.24260    0.28810    0.10210    1.000
    H76      H        0.14170    0.23060    0.03950    1.000
    H77      H        0.29910    0.15350    0.28260    1.000
    H78      H        0.41320    0.20360    0.33750    1.000
    H79      H        0.50580    0.30100    0.29290    1.000
    H80      H        0.36220    0.30300    0.13750    1.000
    H81      H        0.62340    0.54760    0.04110    1.000
    H82      H        0.73240    0.56650    0.97060    1.000
    H83      H        0.83860    0.46530    0.96120    1.000
    H84      H        0.72380    0.32590    0.09400    1.000
    H85      H        0.89340    0.34540    0.93290    1.000
    H86      H        0.98700    0.23400    0.92260    1.000
    H87      H        0.94660    0.16320    0.09540    1.000
    H88      H        0.85010    0.27180    0.10940    1.000
    H89      H        0.53130    0.24650    0.10390    1.000
    H90      H        0.59710    0.24020    0.15280    1.000
    H91      H        0.88790    0.96160    0.65150    1.000
    H92      H        0.78620    0.91000    0.71910    1.000
    H93      H        0.75740    0.71190    0.60210    1.000
    H94      H        0.85830    0.76940    0.53950    1.000
    H95      H        0.70090    0.84650    0.78260    1.000
    H96      H        0.58680    0.79640    0.83750    1.000
    H97      H        0.49420    0.69900    0.79290    1.000
    H98      H        0.63780    0.69700    0.63750    1.000
    H99      H        0.37660    0.45240    0.54110    1.000
    H100     H        0.26760    0.43350    0.47060    1.000
    H101     H        0.16140    0.53470    0.46120    1.000
    H102     H        0.27620    0.67410    0.59400    1.000
    H103     H        0.10660    0.65460    0.43290    1.000
    H104     H        0.01300    0.76600    0.42260    1.000
    H105     H        0.05340    0.83680    0.59540    1.000
    H106     H        0.14990    0.72820    0.60940    1.000
    H107     H        0.46870    0.75350    0.60390    1.000
    H108     H        0.40290    0.75980    0.65280    1.000
    H109     H        0.53840    0.38790    0.90150    1.000
    H110     H        0.59000    0.28620    0.96910    1.000
    H111     H        0.78810    0.25740    0.85210    1.000
    H112     H        0.73060    0.35830    0.78950    1.000
    H113     H        0.65350    0.20090    0.03260    1.000
    H114     H        0.70360    0.08680    0.08750    1.000
    H115     H        0.80100    0.99420    0.04290    1.000
    H116     H        0.80300    0.13780    0.88750    1.000
    H117     H        0.04760    0.87660    0.79110    1.000
    H118     H        0.06650    0.76760    0.72060    1.000
    H119     H        0.96530    0.66140    0.71120    1.000
    H120     H        0.82590    0.77620    0.84400    1.000
    H121     H        0.84540    0.60660    0.68290    1.000
    H122     H        0.73400    0.51300    0.67260    1.000
    H123     H        0.66320    0.55340    0.84540    1.000
    H124     H        0.77180    0.64990    0.85940    1.000
    H125     H        0.74650    0.96870    0.85390    1.000
    H126     H        0.74020    0.90290    0.90280    1.000
    H127     H        0.46160    0.61210    0.40150    1.000
    H128     H        0.41000    0.71380    0.46910    1.000
    H129     H        0.21190    0.74260    0.35210    1.000
    H130     H        0.26940    0.64170    0.28950    1.000
    H131     H        0.34650    0.79910    0.53260    1.000
    H132     H        0.29640    0.91320    0.58750    1.000
    H133     H        0.19900    0.00580    0.54290    1.000
    H134     H        0.19700    0.86220    0.38750    1.000
    H135     H        0.95240    0.12340    0.29110    1.000
    H136     H        0.93350    0.23240    0.22060    1.000
    H137     H        0.03470    0.33860    0.21120    1.000
    H138     H        0.17410    0.22380    0.34400    1.000
    H139     H        0.15460    0.39340    0.18290    1.000
    H140     H        0.26600    0.48700    0.17260    1.000
    H141     H        0.33680    0.44660    0.34540    1.000
    H142     H        0.22820    0.35010    0.35940    1.000
    H143     H        0.25350    0.03130    0.35390    1.000
    H144     H        0.25980    0.09710    0.40280    1.000
    C1       C        0.35940    0.58900    0.10930    1.000
    C2       C        0.29800    0.61910    0.06860    1.000
    C3       C        0.25420    0.69220    0.08380    1.000
    C4       C        0.28130    0.73520    0.13740    1.000
    C5       C        0.34200    0.70070    0.17420    1.000
    C6       C        0.18170    0.72340    0.04680    1.000
    C7       C        0.16480    0.69400    0.98600    1.000
    C8       C        0.09680    0.72350    0.95360    1.000
    C9       C        0.04200    0.78180    0.97950    1.000
    C10      C        0.05880    0.81160    0.03910    1.000
    C11      C        0.12750    0.78220    0.07180    1.000
    C12      C        0.00250    0.87480    0.06980    1.000
    C13      C        0.90740    0.92540    0.13190    1.000
    C14      C        0.83670    0.93460    0.17600    1.000
    C15      C        0.83370    0.00610    0.21260    1.000
    C16      C        0.76890    0.01750    0.25410    1.000
    C17      C        0.70550    0.95770    0.25940    1.000
    C18      C        0.70670    0.88640    0.22130    1.000
    C19      C        0.77370    0.87530    0.18080    1.000
    C20      C        0.64080    0.81980    0.22790    1.000
    C21      C        0.59770    0.80810    0.28320    1.000
    C22      C        0.54140    0.74150    0.28890    1.000
    C23      C        0.56500    0.70000    0.18840    1.000
    C24      C        0.62280    0.76510    0.17970    1.000
    C25      C        0.64060    0.41100    0.60930    1.000
    C26      C        0.70200    0.38090    0.56860    1.000
    C27      C        0.74580    0.30780    0.58380    1.000
    C28      C        0.71870    0.26480    0.63740    1.000
    C29      C        0.65800    0.29930    0.67420    1.000
    C30      C        0.81830    0.27660    0.54680    1.000
    C31      C        0.83520    0.30600    0.48600    1.000
    C32      C        0.90320    0.27650    0.45360    1.000
    C33      C        0.95800    0.21820    0.47950    1.000
    C34      C        0.94120    0.18840    0.53910    1.000
    C35      C        0.87250    0.21780    0.57180    1.000
    C36      C        0.99750    0.12520    0.56980    1.000
    C37      C        0.09260    0.07460    0.63190    1.000
    C38      C        0.16330    0.06540    0.67600    1.000
    C39      C        0.16630    0.99390    0.71260    1.000
    C40      C        0.23110    0.98250    0.75410    1.000
    C41      C        0.29450    0.04230    0.75940    1.000
    C42      C        0.29330    0.11360    0.72130    1.000
    C43      C        0.22630    0.12470    0.68080    1.000
    C44      C        0.35920    0.18020    0.72790    1.000
    C45      C        0.40230    0.19190    0.78320    1.000
    C46      C        0.45860    0.25850    0.78890    1.000
    C47      C        0.43500    0.30000    0.68840    1.000
    C48      C        0.37720    0.23490    0.67970    1.000
    C49      C        0.91100    0.85940    0.35930    1.000
    C50      C        0.88090    0.79800    0.31860    1.000
    C51      C        0.80780    0.75420    0.33380    1.000
    C52      C        0.76480    0.78130    0.38740    1.000
    C53      C        0.79930    0.84200    0.42420    1.000
    C54      C        0.77660    0.68170    0.29680    1.000
    C55      C        0.80600    0.66480    0.23600    1.000
    C56      C        0.77650    0.59680    0.20360    1.000
    C57      C        0.71820    0.54200    0.22950    1.000
    C58      C        0.68840    0.55880    0.28910    1.000
    C59      C        0.71780    0.62750    0.32180    1.000
    C60      C        0.62520    0.50250    0.31980    1.000
    C61      C        0.57460    0.40740    0.38190    1.000
    C62      C        0.56540    0.33670    0.42600    1.000
    C63      C        0.49390    0.33370    0.46260    1.000
    C64      C        0.48250    0.26890    0.50410    1.000
    C65      C        0.54230    0.20550    0.50940    1.000
    C66      C        0.61360    0.20670    0.47130    1.000
    C67      C        0.62470    0.27370    0.43080    1.000
    C68      C        0.68020    0.14080    0.47790    1.000
    C69      C        0.69190    0.09770    0.53320    1.000
    C70      C        0.75850    0.04140    0.53890    1.000
    C71      C        0.80000    0.06500    0.43840    1.000
    C72      C        0.73490    0.12280    0.42970    1.000
    C73      C        0.08900    0.14060    0.85930    1.000
    C74      C        0.11910    0.20200    0.81860    1.000
    C75      C        0.19220    0.24580    0.83380    1.000
    C76      C        0.23520    0.21870    0.88740    1.000
    C77      C        0.20070    0.15800    0.92420    1.000
    C78      C        0.22340    0.31830    0.79680    1.000
    C79      C        0.19400    0.33520    0.73600    1.000
    C80      C        0.22350    0.40320    0.70360    1.000
    C81      C        0.28180    0.45800    0.72950    1.000
    C82      C        0.31160    0.44120    0.78910    1.000
    C83      C        0.28220    0.37250    0.82180    1.000
    C84      C        0.37480    0.49750    0.81980    1.000
    C85      C        0.42540    0.59260    0.88190    1.000
    C86      C        0.43460    0.66330    0.92600    1.000
    C87      C        0.50610    0.66630    0.96260    1.000
    C88      C        0.51750    0.73110    0.00410    1.000
    C89      C        0.45770    0.79450    0.00940    1.000
    C90      C        0.38640    0.79330    0.97130    1.000
    C91      C        0.37530    0.72630    0.93080    1.000
    C92      C        0.31980    0.85920    0.97790    1.000
    C93      C        0.30810    0.90230    0.03320    1.000
    C94      C        0.24150    0.95860    0.03890    1.000
    C95      C        0.20000    0.93500    0.93840    1.000
    C96      C        0.26510    0.87720    0.92970    1.000
    C97      C        0.14060    0.08900    0.14070    1.000
    C98      C        0.20200    0.11910    0.18140    1.000
    C99      C        0.24580    0.19220    0.16620    1.000
    C100     C        0.21870    0.23520    0.11260    1.000
    C101     C        0.15800    0.20070    0.07580    1.000
    C102     C        0.31830    0.22340    0.20320    1.000
    C103     C        0.33520    0.19400    0.26400    1.000
    C104     C        0.40320    0.22350    0.29640    1.000
    C105     C        0.45800    0.28180    0.27050    1.000
    C106     C        0.44120    0.31160    0.21090    1.000
    C107     C        0.37250    0.28220    0.17820    1.000
    C108     C        0.49750    0.37480    0.18020    1.000
    C109     C        0.59260    0.42540    0.11810    1.000
    C110     C        0.66330    0.43460    0.07400    1.000
    C111     C        0.66630    0.50610    0.03740    1.000
    C112     C        0.73110    0.51750    0.99590    1.000
    C113     C        0.79450    0.45770    0.99060    1.000
    C114     C        0.79330    0.38640    0.02870    1.000
    C115     C        0.72630    0.37530    0.06920    1.000
    C116     C        0.85920    0.31980    0.02210    1.000
    C117     C        0.90230    0.30810    0.96680    1.000
    C118     C        0.95860    0.24150    0.96110    1.000
    C119     C        0.93500    0.20000    0.06160    1.000
    C120     C        0.87720    0.26510    0.07030    1.000
    C121     C        0.85940    0.91100    0.64070    1.000
    C122     C        0.79800    0.88090    0.68140    1.000
    C123     C        0.75420    0.80780    0.66620    1.000
    C124     C        0.78130    0.76480    0.61260    1.000
    C125     C        0.84200    0.79930    0.57580    1.000
    C126     C        0.68170    0.77660    0.70320    1.000
    C127     C        0.66480    0.80600    0.76400    1.000
    C128     C        0.59680    0.77650    0.79640    1.000
    C129     C        0.54200    0.71820    0.77050    1.000
    C130     C        0.55880    0.68840    0.71090    1.000
    C131     C        0.62750    0.71780    0.67820    1.000
    C132     C        0.50250    0.62520    0.68020    1.000
    C133     C        0.40740    0.57460    0.61810    1.000
    C134     C        0.33670    0.56540    0.57400    1.000
    C135     C        0.33370    0.49390    0.53740    1.000
    C136     C        0.26890    0.48250    0.49590    1.000
    C137     C        0.20550    0.54230    0.49060    1.000
    C138     C        0.20670    0.61360    0.52870    1.000
    C139     C        0.27370    0.62470    0.56920    1.000
    C140     C        0.14080    0.68020    0.52210    1.000
    C141     C        0.09770    0.69190    0.46680    1.000
    C142     C        0.04140    0.75850    0.46110    1.000
    C143     C        0.06500    0.80000    0.56160    1.000
    C144     C        0.12280    0.73490    0.57030    1.000
    C145     C        0.58900    0.35940    0.89070    1.000
    C146     C        0.61910    0.29800    0.93140    1.000
    C147     C        0.69220    0.25420    0.91620    1.000
    C148     C        0.73520    0.28130    0.86260    1.000
    C149     C        0.70070    0.34200    0.82580    1.000
    C150     C        0.72340    0.18170    0.95320    1.000
    C151     C        0.69400    0.16480    0.01400    1.000
    C152     C        0.72350    0.09680    0.04640    1.000
    C153     C        0.78180    0.04200    0.02050    1.000
    C154     C        0.81160    0.05880    0.96090    1.000
    C155     C        0.78220    0.12750    0.92820    1.000
    C156     C        0.87480    0.00250    0.93020    1.000
    C157     C        0.92540    0.90740    0.86810    1.000
    C158     C        0.93460    0.83670    0.82400    1.000
    C159     C        0.00610    0.83370    0.78740    1.000
    C160     C        0.01750    0.76890    0.74590    1.000
    C161     C        0.95770    0.70550    0.74060    1.000
    C162     C        0.88640    0.70670    0.77870    1.000
    C163     C        0.87530    0.77370    0.81920    1.000
    C164     C        0.81980    0.64080    0.77210    1.000
    C165     C        0.80810    0.59770    0.71680    1.000
    C166     C        0.74150    0.54140    0.71110    1.000
    C167     C        0.70000    0.56500    0.81160    1.000
    C168     C        0.76510    0.62280    0.82030    1.000
    C169     C        0.41100    0.64060    0.39070    1.000
    C170     C        0.38090    0.70200    0.43140    1.000
    C171     C        0.30780    0.74580    0.41620    1.000
    C172     C        0.26480    0.71870    0.36260    1.000
    C173     C        0.29930    0.65800    0.32580    1.000
    C174     C        0.27660    0.81830    0.45320    1.000
    C175     C        0.30600    0.83520    0.51400    1.000
    C176     C        0.27650    0.90320    0.54640    1.000
    C177     C        0.21820    0.95800    0.52050    1.000
    C178     C        0.18840    0.94120    0.46090    1.000
    C179     C        0.21780    0.87250    0.42820    1.000
    C180     C        0.12520    0.99750    0.43020    1.000
    C181     C        0.07460    0.09260    0.36810    1.000
    C182     C        0.06540    0.16330    0.32400    1.000
    C183     C        0.99390    0.16630    0.28740    1.000
    C184     C        0.98250    0.23110    0.24590    1.000
    C185     C        0.04230    0.29450    0.24060    1.000
    C186     C        0.11360    0.29330    0.27870    1.000
    C187     C        0.12470    0.22630    0.31920    1.000
    C188     C        0.18020    0.35920    0.27210    1.000
    C189     C        0.19190    0.40230    0.21680    1.000
    C190     C        0.25850    0.45860    0.21110    1.000
    C191     C        0.30000    0.43500    0.31160    1.000
    C192     C        0.23490    0.37720    0.32030    1.000
    N1       N        0.00690    0.95680    0.06720    1.000
    N2       N        0.94620    0.98930    0.10600    1.000
    N3       N        0.94130    0.85320    0.10976    1.000
    N4       N        0.92170    0.77110    0.13010    1.000
    N5       N        0.38050    0.62630    0.16210    1.000
    N6       N        0.52530    0.68730    0.24240    1.000
    N7       N        0.99310    0.04320    0.56720    1.000
    N8       N        0.05380    0.01070    0.60600    1.000
    N9       N        0.05870    0.14680    0.60976    1.000
    N10      N        0.07830    0.22890    0.63010    1.000
    N11      N        0.61950    0.37370    0.66210    1.000
    N12      N        0.47470    0.31270    0.74240    1.000
    N13      N        0.54320    0.50690    0.31720    1.000
    N14      N        0.51070    0.44620    0.35600    1.000
    N15      N        0.64680    0.44130    0.35976    1.000
    N16      N        0.72890    0.42170    0.38010    1.000
    N17      N        0.87370    0.88050    0.41210    1.000
    N18      N        0.81270    0.02530    0.49240    1.000
    N19      N        0.45680    0.49310    0.81720    1.000
    N20      N        0.48930    0.55380    0.85600    1.000
    N21      N        0.35320    0.55870    0.85976    1.000
    N22      N        0.27110    0.57830    0.88010    1.000
    N23      N        0.12630    0.11950    0.91210    1.000
    N24      N        0.18730    0.97470    0.99240    1.000
    N25      N        0.49310    0.45680    0.18280    1.000
    N26      N        0.55380    0.48930    0.14400    1.000
    N27      N        0.55870    0.35320    0.14024    1.000
    N28      N        0.57830    0.27110    0.11990    1.000
    N29      N        0.11950    0.12630    0.08790    1.000
    N30      N        0.97470    0.18730    0.00760    1.000
    N31      N        0.50690    0.54320    0.68280    1.000
    N32      N        0.44620    0.51070    0.64400    1.000
    N33      N        0.44130    0.64680    0.64024    1.000
    N34      N        0.42170    0.72890    0.61990    1.000
    N35      N        0.88050    0.87370    0.58790    1.000
    N36      N        0.02530    0.81270    0.50760    1.000
    N37      N        0.95680    0.00690    0.93280    1.000
    N38      N        0.98930    0.94620    0.89400    1.000
    N39      N        0.85320    0.94130    0.89024    1.000
    N40      N        0.77110    0.92170    0.86990    1.000
    N41      N        0.62630    0.38050    0.83790    1.000
    N42      N        0.68730    0.52530    0.75760    1.000
    N43      N        0.04320    0.99310    0.43280    1.000
    N44      N        0.01070    0.05380    0.39400    1.000
    N45      N        0.14680    0.05870    0.39024    1.000
    N46      N        0.22890    0.07830    0.36990    1.000
    N47      N        0.37370    0.61950    0.33790    1.000
    N48      N        0.31270    0.47470    0.25760    1.000
    Cl1      Cl       0.88155    0.11845    0.75000    1.000
    O1       O        0.88720    0.18570    0.78680    1.000
    O2       O        0.87100    0.05560    0.78480    1.000
    O3       O        0.81430    0.11280    0.71320    1.000
    O4       O        0.94440    0.12900    0.71520    1.000
    Cl2      Cl       0.11845    0.88155    0.25000    1.000
    O5       O        0.11280    0.81430    0.28680    1.000
    O6       O        0.12900    0.94440    0.28480    1.000
    O7       O        0.18570    0.88720    0.21320    1.000
    O8       O        0.05560    0.87100    0.21520    1.000
    Cl3      Cl       0.38155    0.38155    0.00000    1.000
    O9       O        0.31430    0.38720    0.03680    1.000
    O10      O        0.44440    0.37100    0.03480    1.000
    O11      O        0.38720    0.31430    0.96320    1.000
    O12      O        0.37100    0.44440    0.96520    1.000
    Cl4      Cl       0.61845    0.61845    0.50000    1.000
    O13      O        0.68570    0.61280    0.53680    1.000
    O14      O        0.55560    0.62900    0.53480    1.000
    O15      O        0.61280    0.68570    0.46320    1.000
    O16      O        0.62900    0.55560    0.46520    1.000
