# CIF file generated by openbabel 3.1.0, see https://openbabel.org
data_I
_chemical_name_common 'BUGSEC_clean'
_cell_length_a 5.552
_cell_length_b 13.3686
_cell_length_c 20.797
_cell_angle_alpha 90
_cell_angle_beta 95.577
_cell_angle_gamma 90
_space_group_name_H-M_alt 'P 1'
_space_group_name_Hall 'P 1'
loop_
    _symmetry_equiv_pos_as_xyz
    x,y,z
loop_
    _atom_site_label
    _atom_site_type_symbol
    _atom_site_fract_x
    _atom_site_fract_y
    _atom_site_fract_z
    _atom_site_occupancy
    Eu1      Eu       0.87235    0.63267    0.52782    1.000
    Eu2      Eu       0.12765    0.13267    0.97218    1.000
    Eu3      Eu       0.12765    0.36733    0.47218    1.000
    Eu4      Eu       0.87235    0.86733    0.02782    1.000
    P1       P        0.58990    0.52088    0.41395    1.000
    P2       P        0.41010    0.02088    0.08605    1.000
    P3       P        0.41010    0.47912    0.58605    1.000
    P4       P        0.58990    0.97912    0.91395    1.000
    H1       H        0.83450    0.58010    0.33670    1.000
    H2       H        0.74040    0.47300    0.31730    1.000
    H3       H        0.62190    0.72860    0.29860    1.000
    H4       H        0.41450    0.69880    0.34130    1.000
    H5       H        0.12540    0.70130    0.24860    1.000
    H6       H        0.25340    0.80600    0.25480    1.000
    H7       H        0.51480    0.75850    0.17550    1.000
    H8       H        0.45160    0.59990    0.12240    1.000
    H9       H        0.24870    0.57350    0.16740    1.000
    H10      H        0.62540    0.49780    0.20990    1.000
    H11      H        0.74790    0.60400    0.21520    1.000
    H12      H        0.16550    0.08010    0.16330    1.000
    H13      H        0.25960    0.97300    0.18270    1.000
    H14      H        0.37810    0.22860    0.20140    1.000
    H15      H        0.58550    0.19880    0.15870    1.000
    H16      H        0.87460    0.20130    0.25140    1.000
    H17      H        0.74660    0.30600    0.24520    1.000
    H18      H        0.48520    0.25850    0.32450    1.000
    H19      H        0.54840    0.09990    0.37760    1.000
    H20      H        0.75130    0.07350    0.33260    1.000
    H21      H        0.37460    0.99780    0.29010    1.000
    H22      H        0.25210    0.10400    0.28480    1.000
    H23      H        0.16550    0.41990    0.66330    1.000
    H24      H        0.25960    0.52700    0.68270    1.000
    H25      H        0.37810    0.27140    0.70140    1.000
    H26      H        0.58550    0.30120    0.65870    1.000
    H27      H        0.87460    0.29870    0.75140    1.000
    H28      H        0.74660    0.19400    0.74520    1.000
    H29      H        0.48520    0.24150    0.82450    1.000
    H30      H        0.54840    0.40010    0.87760    1.000
    H31      H        0.75130    0.42650    0.83260    1.000
    H32      H        0.37460    0.50220    0.79010    1.000
    H33      H        0.25210    0.39600    0.78480    1.000
    H34      H        0.83450    0.91990    0.83670    1.000
    H35      H        0.74040    0.02700    0.81730    1.000
    H36      H        0.62190    0.77140    0.79860    1.000
    H37      H        0.41450    0.80120    0.84130    1.000
    H38      H        0.12540    0.79870    0.74860    1.000
    H39      H        0.25340    0.69400    0.75480    1.000
    H40      H        0.51480    0.74150    0.67550    1.000
    H41      H        0.45160    0.90010    0.62240    1.000
    H42      H        0.24870    0.92650    0.66740    1.000
    H43      H        0.62540    0.00220    0.70990    1.000
    H44      H        0.74790    0.89600    0.71520    1.000
    C1       C        0.69220    0.53770    0.33280    1.000
    C2       C        0.47090    0.69220    0.29880    1.000
    C3       C        0.27830    0.73560    0.24640    1.000
    C4       C        0.36150    0.72300    0.17790    1.000
    C5       C        0.39960    0.60940    0.16510    1.000
    C6       C        0.59690    0.56820    0.21750    1.000
    C7       C        0.17040    0.76420    0.12510    1.000
    C8       C        0.30780    0.03770    0.16720    1.000
    C9       C        0.52910    0.19220    0.20120    1.000
    C10      C        0.72170    0.23560    0.25360    1.000
    C11      C        0.63850    0.22300    0.32210    1.000
    C12      C        0.60040    0.10940    0.33490    1.000
    C13      C        0.40310    0.06820    0.28250    1.000
    C14      C        0.82960    0.26420    0.37490    1.000
    C15      C        0.30780    0.46230    0.66720    1.000
    C16      C        0.52910    0.30780    0.70120    1.000
    C17      C        0.72170    0.26440    0.75360    1.000
    C18      C        0.63850    0.27700    0.82210    1.000
    C19      C        0.60040    0.39060    0.83490    1.000
    C20      C        0.40310    0.43180    0.78250    1.000
    C21      C        0.82960    0.23580    0.87490    1.000
    C22      C        0.69220    0.96230    0.83280    1.000
    C23      C        0.47090    0.80780    0.79880    1.000
    C24      C        0.27830    0.76440    0.74640    1.000
    C25      C        0.36150    0.77700    0.67790    1.000
    C26      C        0.39960    0.89060    0.66510    1.000
    C27      C        0.59690    0.93180    0.71750    1.000
    C28      C        0.17040    0.73580    0.62510    1.000
    N1       N        0.50950    0.58220    0.28340    1.000
    N2       N        0.49050    0.08220    0.21660    1.000
    N3       N        0.49050    0.41780    0.71660    1.000
    N4       N        0.50950    0.91780    0.78340    1.000
    O1       O        0.54080    0.62300    0.44440    1.000
    O2       O        0.82240    0.48140    0.45430    1.000
    O3       O        0.37600    0.45020    0.40910    1.000
    O4       O        0.00200    0.81920    0.14090    1.000
    O5       O        0.19780    0.74880    0.06740    1.000
    O6       O        0.45920    0.12300    0.05560    1.000
    O7       O        0.17760    0.98140    0.04570    1.000
    O8       O        0.62400    0.95020    0.09090    1.000
    O9       O        0.99800    0.31920    0.35910    1.000
    O10      O        0.80220    0.24880    0.43260    1.000
    O11      O        0.45920    0.37700    0.55560    1.000
    O12      O        0.17760    0.51860    0.54570    1.000
    O13      O        0.62400    0.54980    0.59090    1.000
    O14      O        0.99800    0.18080    0.85910    1.000
    O15      O        0.80220    0.25120    0.93260    1.000
    O16      O        0.54080    0.87700    0.94440    1.000
    O17      O        0.82240    0.01860    0.95430    1.000
    O18      O        0.37600    0.04980    0.90910    1.000
    O19      O        0.00200    0.68080    0.64090    1.000
    O20      O        0.19780    0.75120    0.56740    1.000
