# CIF file generated by openbabel 3.1.0, see https://openbabel.org
data_I
_chemical_name_common 'image0'
_cell_length_a 5.305
_cell_length_b 9.296
_cell_length_c 15.474
_cell_angle_alpha 86.462
_cell_angle_beta 86.42
_cell_angle_gamma 78.906
_space_group_name_H-M_alt 'P 1'
_space_group_name_Hall 'P 1'
loop_
    _symmetry_equiv_pos_as_xyz
    x,y,z
loop_
    _atom_site_label
    _atom_site_type_symbol
    _atom_site_fract_x
    _atom_site_fract_y
    _atom_site_fract_z
    _atom_site_occupancy
    Zn1      Zn       0.77560    0.61900    0.26355    1.000
    Zn2      Zn       0.27790    0.55550    0.39633    1.000
    Zn3      Zn       0.20570    0.57550    0.09975    1.000
    Zn4      Zn       0.01540    0.15090    0.25745    1.000
    P1       P        0.76210    0.39560    0.11850    1.000
    P2       P        0.82730    0.36320    0.40730    1.000
    P3       P        0.21210    0.79600    0.24050    1.000
    O1       O        0.10000    0.67370    0.29820    1.000
    O2       O        0.89000    0.51480    0.15750    1.000
    O3       O        0.64900    0.49640    0.36060    1.000
    O4       O        0.49200    0.78050    0.25930    1.000
    O5       O        0.10100    0.39130    0.40200    1.000
    O6       O        0.28200    0.65650    0.50010    1.000
    O7       O        0.47600    0.42850    0.15040    1.000
    O8       O        0.17700    0.76860    0.14510    1.000
    O9       O        0.20600    0.59160    0.97870    1.000
    O10      O        0.81500    0.22340    0.36070    1.000
    O11      O        0.06000    0.94380    0.26510    1.000
    O12      O        0.88400    0.24450    0.15140    1.000
    Zn5      Zn       0.22440    0.38100    0.73645    1.000
    Zn6      Zn       0.72210    0.44450    0.60367    1.000
    Zn7      Zn       0.79430    0.42450    0.90025    1.000
    Zn8      Zn       0.98460    0.84910    0.74255    1.000
    P4       P        0.23790    0.60440    0.88150    1.000
    P5       P        0.17270    0.63680    0.59270    1.000
    P6       P        0.78790    0.20400    0.75950    1.000
    O13      O        0.90000    0.32630    0.70180    1.000
    O14      O        0.11000    0.48520    0.84250    1.000
    O15      O        0.35100    0.50360    0.63940    1.000
    O16      O        0.50800    0.21950    0.74070    1.000
    O17      O        0.89900    0.60870    0.59800    1.000
    O18      O        0.71800    0.34350    0.49990    1.000
    O19      O        0.52400    0.57150    0.84960    1.000
    O20      O        0.82300    0.23140    0.85490    1.000
    O21      O        0.79400    0.40840    0.02130    1.000
    O22      O        0.18500    0.77660    0.63930    1.000
    O23      O        0.94000    0.05620    0.73490    1.000
    O24      O        0.11600    0.75550    0.84860    1.000
