# CIF file generated by openbabel 3.1.0, see https://openbabel.org
data_I
_chemical_name_common 'ZIMJOW_clean'
_cell_length_a 11.7992
_cell_length_b 11.8606
_cell_length_c 13.6301
_cell_angle_alpha 95.263
_cell_angle_beta 108.547
_cell_angle_gamma 108.081
_space_group_name_H-M_alt 'P 1'
_space_group_name_Hall 'P 1'
loop_
    _symmetry_equiv_pos_as_xyz
    x,y,z
loop_
    _atom_site_label
    _atom_site_type_symbol
    _atom_site_fract_x
    _atom_site_fract_y
    _atom_site_fract_z
    _atom_site_occupancy
    Ce1      Ce       0.00139    0.99780    0.74980    1.000
    Ce2      Ce       0.37253    0.35864    0.61235    1.000
    Ce3      Ce       0.99861    0.00220    0.25020    1.000
    Ce4      Ce       0.62747    0.64136    0.38765    1.000
    H1       H        0.61920    0.19520    0.69370    1.000
    H2       H        0.46900    0.83310    0.58400    1.000
    H3       H        0.53370    0.16990    0.86370    1.000
    H4       H        0.39660    0.81560    0.86970    1.000
    H5       H        0.23210    0.92540    0.51210    1.000
    H6       H        0.70570    0.89750    0.95410    1.000
    H7       H        0.13090    0.50330    0.39950    1.000
    H8       H        0.16830    0.38860    0.38430    1.000
    H9       H        0.44330    0.60800    0.53330    1.000
    H10      H        0.15900    0.41900    0.22300    1.000
    H11      H        0.12700    0.51700    0.23200    1.000
    H12      H        0.38080    0.80480    0.30630    1.000
    H13      H        0.53100    0.16690    0.41600    1.000
    H14      H        0.46630    0.83010    0.13630    1.000
    H15      H        0.60340    0.18440    0.13030    1.000
    H16      H        0.76790    0.07460    0.48790    1.000
    H17      H        0.29430    0.10250    0.04590    1.000
    H18      H        0.86910    0.49670    0.60050    1.000
    H19      H        0.83170    0.61140    0.61570    1.000
    H20      H        0.55670    0.39200    0.46670    1.000
    H21      H        0.84100    0.58100    0.77700    1.000
    H22      H        0.87300    0.48300    0.76800    1.000
    C1       C        0.74810    0.11050    0.71523    1.000
    C2       C        0.62810    0.12040    0.68231    1.000
    C3       C        0.52220    0.01520    0.63184    1.000
    C4       C        0.53910    0.90510    0.61514    1.000
    C5       C        0.66300    0.90500    0.64600    1.000
    C6       C        0.86960    0.21710    0.77721    1.000
    C7       C        0.39120    0.02340    0.59210    1.000
    C8       C        0.69530    0.79460    0.62085    1.000
    C9       C        0.34100    0.09600    0.82179    1.000
    C10      C        0.46600    0.09880    0.85472    1.000
    C11      C        0.48760    0.99300    0.87390    1.000
    C12      C        0.38470    0.88820    0.85929    1.000
    C13      C        0.26300    0.89490    0.82860    1.000
    C14      C        0.30400    0.20220    0.79193    1.000
    C15      C        0.62380    0.99730    0.91392    1.000
    C16      C        0.14370    0.78900    0.81363    1.000
    C17      C        0.06920    0.04620    0.02386    1.000
    C18      C        0.04170    0.96040    0.50853    1.000
    C19      C        0.31610    0.54720    0.40910    1.000
    C20      C        0.17720    0.46760    0.36680    1.000
    C21      C        0.25190    0.88950    0.28477    1.000
    C22      C        0.37190    0.87960    0.31769    1.000
    C23      C        0.47780    0.98480    0.36816    1.000
    C24      C        0.46090    0.09490    0.38486    1.000
    C25      C        0.33700    0.09500    0.35400    1.000
    C26      C        0.13040    0.78290    0.22279    1.000
    C27      C        0.60880    0.97660    0.40790    1.000
    C28      C        0.30470    0.20540    0.37915    1.000
    C29      C        0.65900    0.90400    0.17821    1.000
    C30      C        0.53400    0.90120    0.14528    1.000
    C31      C        0.51240    0.00700    0.12610    1.000
    C32      C        0.61530    0.11180    0.14071    1.000
    C33      C        0.73700    0.10510    0.17140    1.000
    C34      C        0.69600    0.79780    0.20807    1.000
    C35      C        0.37620    0.00270    0.08608    1.000
    C36      C        0.85630    0.21100    0.18637    1.000
    C37      C        0.93080    0.95380    0.97614    1.000
    C38      C        0.95830    0.03960    0.49147    1.000
    C39      C        0.68390    0.45280    0.59090    1.000
    C40      C        0.82280    0.53240    0.63320    1.000
    N1       N        0.76529    0.00610    0.69559    1.000
    N2       N        0.24206    0.99663    0.81087    1.000
    N3       N        0.12240    0.45330    0.25130    1.000
    N4       N        0.23471    0.99390    0.30441    1.000
    N5       N        0.75794    0.00337    0.18913    1.000
    N6       N        0.87760    0.54670    0.74870    1.000
    O1       O        0.97146    0.19405    0.80640    1.000
    O2       O        0.86206    0.31774    0.79852    1.000
    O3       O        0.30230    0.91820    0.53250    1.000
    O4       O        0.37323    0.11745    0.59987    1.000
    O5       O        0.60704    0.69379    0.58055    1.000
    O6       O        0.81129    0.81277    0.63949    1.000
    O7       O        0.18645    0.18515    0.75972    1.000
    O8       O        0.38938    0.29929    0.79795    1.000
    O9       O        0.63057    0.89201    0.93243    1.000
    O10      O        0.71394    0.08856    0.92992    1.000
    O11      O        0.15311    0.68762    0.82109    1.000
    O12      O        0.04216    0.80995    0.79442    1.000
    O13      O        0.12415    0.07717    0.95997    1.000
    O14      O        0.11602    0.08231    0.12216    1.000
    O15      O        0.06959    0.92908    0.59519    1.000
    O16      O        0.07610    0.93507    0.43381    1.000
    O17      O        0.36759    0.56417    0.51282    1.000
    O18      O        0.37202    0.58897    0.35370    1.000
    O19      O        0.02854    0.80595    0.19360    1.000
    O20      O        0.13794    0.68226    0.20148    1.000
    O21      O        0.69770    0.08180    0.46750    1.000
    O22      O        0.62677    0.88255    0.40013    1.000
    O23      O        0.39296    0.30621    0.41945    1.000
    O24      O        0.18871    0.18723    0.36051    1.000
    O25      O        0.81355    0.81485    0.24028    1.000
    O26      O        0.61062    0.70071    0.20205    1.000
    O27      O        0.36943    0.10799    0.06757    1.000
    O28      O        0.28606    0.91144    0.07008    1.000
    O29      O        0.84689    0.31238    0.17891    1.000
    O30      O        0.95784    0.19005    0.20558    1.000
    O31      O        0.87585    0.92283    0.04003    1.000
    O32      O        0.88398    0.91769    0.87784    1.000
    O33      O        0.93041    0.07092    0.40481    1.000
    O34      O        0.92390    0.06493    0.56619    1.000
    O35      O        0.63241    0.43583    0.48718    1.000
    O36      O        0.62798    0.41103    0.64630    1.000
