# CIF file generated by openbabel 3.1.0, see https://openbabel.org
data_I
_chemical_name_common 'image0'
_cell_length_a 10.327
_cell_length_b 26.237
_cell_length_c 27.756
_cell_angle_alpha 90
_cell_angle_beta 93.83
_cell_angle_gamma 90
_space_group_name_H-M_alt 'P 1'
_space_group_name_Hall 'P 1'
loop_
    _symmetry_equiv_pos_as_xyz
    x,y,z
loop_
    _atom_site_label
    _atom_site_type_symbol
    _atom_site_fract_x
    _atom_site_fract_y
    _atom_site_fract_z
    _atom_site_occupancy
    Zn1      Zn       0.18180    0.76753    0.33672    1.000
    O1       O        0.04050    0.80457    0.36387    1.000
    O2       O        0.30220    0.83548    0.33288    1.000
    O3       O        0.31080    0.74510    0.38713    1.000
    O4       O        0.08800    0.69412    0.33786    1.000
    O5       O        0.18770    0.75894    0.26649    1.000
    Zn2      Zn       0.88719    0.77326    0.33262    1.000
    Zn3      Zn       0.05457    0.79983    0.43261    1.000
    Zn4      Zn       0.04111    0.87264    0.33656    1.000
    C1       C        0.29260    0.87824    0.31289    1.000
    C2       C        0.31430    0.75369    0.43105    1.000
    O6       O        0.75920    0.82370    0.30962    1.000
    O7       O        0.89070    0.70771    0.30199    1.000
    O8       O        0.78490    0.75318    0.39038    1.000
    O9       O        0.21950    0.76708    0.45508    1.000
    O10      O        0.05590    0.86875    0.46252    1.000
    O11      O        0.90170    0.76816    0.45928    1.000
    O12      O        0.18600    0.90404    0.30647    1.000
    O13      O        0.04160    0.91755    0.39772    1.000
    O14      O        0.87240    0.89784    0.30829    1.000
    C3       C        0.41400    0.90324    0.29691    1.000
    C4       C        0.44400    0.74665    0.45940    1.000
    C5       C        0.04160    0.90870    0.44196    1.000
    C6       C        0.53110    0.87712    0.30512    1.000
    C7       C        0.41230    0.95273    0.27647    1.000
    C8       C        0.45270    0.74030    0.50982    1.000
    C9       C        0.55640    0.74998    0.43510    1.000
    C10      C        0.01940    0.95690    0.47180    1.000
    H1       H        0.53280    0.84430    0.31870    1.000
    C11      C        0.64500    0.90036    0.29302    1.000
    C12      C        0.52620    0.97482    0.26510    1.000
    H2       H        0.33340    0.97030    0.27080    1.000
    H3       H        0.37660    0.73740    0.52640    1.000
    C13      C        0.57010    0.73838    0.53471    1.000
    C14      C        0.67750    0.75018    0.46177    1.000
    H4       H        0.55210    0.75210    0.40120    1.000
    C15      C        0.09670    0.96300    0.51650    1.000
    C16      C        0.92460    0.99340    0.45530    1.000
    C17      C        0.64180    0.94856    0.27381    1.000
    C18      C        0.76950    0.87165    0.30436    1.000
    C19      C        0.52490    0.02623    0.24391    1.000
    C20      C        0.68430    0.74440    0.51082    1.000
    C21      C        0.57800    0.73300    0.58914    1.000
    C22      C        0.79690    0.75715    0.43435    1.000
    C23      C        0.21670    0.92400    0.53970    1.000
    C24      C        0.82410    0.98940    0.40600    1.000
    H5       H        0.72000    0.96410    0.26640    1.000
    C25      C        0.62510    0.06070    0.25265    1.000
    C26      C        0.42000    0.04390    0.21327    1.000
    H6       H        0.76530    0.74450    0.52840    1.000
    C27      C        0.49040    0.70140    0.61061    1.000
    C28      C        0.66880    0.76020    0.61760    1.000
    C29      C        0.30670    0.93430    0.58350    1.000
    H7       H        0.22700    0.89280    0.52380    1.000
    H8       H        0.83240    0.96020    0.38690    1.000
    C30      C        0.72980    0.02330    0.39200    1.000
    H9       H        0.69800    0.05030    0.27230    1.000
    C31      C        0.62390    0.10970    0.23399    1.000
    C32      C        0.41580    0.09290    0.19536    1.000
    H10      H        0.35090    0.02160    0.20480    1.000
    H11      H        0.42520    0.68410    0.59180    1.000
    C33      C        0.50150    0.69580    0.66130    1.000
    C34      C        0.67610    0.75440    0.66769    1.000
    H12      H        0.72570    0.78260    0.60320    1.000
    H13      H        0.36560    0.90570    0.58870    1.000
    H14      H        0.68520    0.01080    0.36250    1.000
    H15      H        0.69530    0.13150    0.24030    1.000
    C35      C        0.51530    0.12624    0.20570    1.000
    H16      H        0.34320    0.10360    0.17570    1.000
    H17      H        0.44710    0.67290    0.67630    1.000
    C36      C        0.59220    0.72400    0.68924    1.000
    H18      H        0.74050    0.77190    0.68660    1.000
    C37      C        0.50960    0.17977    0.18654    1.000
    C38      C        0.59620    0.71620    0.74322    1.000
    O15      O        0.51330    0.69210    0.76142    1.000
    Zn5      Zn       0.31820    0.26753    0.16328    1.000
    O16      O        0.45950    0.30457    0.13613    1.000
    O17      O        0.19780    0.33548    0.16712    1.000
    O18      O        0.18920    0.24510    0.11287    1.000
    O19      O        0.41200    0.19412    0.16214    1.000
    O20      O        0.31230    0.25894    0.23351    1.000
    Zn6      Zn       0.61281    0.27326    0.16738    1.000
    Zn7      Zn       0.44543    0.29983    0.06739    1.000
    Zn8      Zn       0.45889    0.37264    0.16344    1.000
    C39      C        0.20740    0.37824    0.18711    1.000
    C40      C        0.18570    0.25369    0.06895    1.000
    O21      O        0.74080    0.32370    0.19038    1.000
    O22      O        0.60930    0.20771    0.19801    1.000
    O23      O        0.71510    0.25318    0.10962    1.000
    O24      O        0.28050    0.26708    0.04492    1.000
    O25      O        0.44410    0.36875    0.03748    1.000
    O26      O        0.59830    0.26816    0.04072    1.000
    O27      O        0.31400    0.40404    0.19353    1.000
    O28      O        0.45840    0.41755    0.10228    1.000
    O29      O        0.62760    0.39784    0.19171    1.000
    C41      C        0.08600    0.40324    0.20309    1.000
    C42      C        0.05600    0.24665    0.04060    1.000
    C43      C        0.45840    0.40870    0.05804    1.000
    C44      C        0.96890    0.37712    0.19488    1.000
    C45      C        0.08770    0.45273    0.22353    1.000
    C46      C        0.04730    0.24030    0.99018    1.000
    C47      C        0.94360    0.24998    0.06490    1.000
    C48      C        0.48060    0.45690    0.02820    1.000
    H19      H        0.96720    0.34430    0.18130    1.000
    C49      C        0.85500    0.40036    0.20698    1.000
    C50      C        0.97380    0.47482    0.23490    1.000
    H20      H        0.16660    0.47030    0.22920    1.000
    H21      H        0.12340    0.23740    0.97360    1.000
    C51      C        0.92990    0.23838    0.96529    1.000
    C52      C        0.82250    0.25018    0.03823    1.000
    H22      H        0.94790    0.25210    0.09880    1.000
    C53      C        0.40330    0.46300    0.98350    1.000
    C54      C        0.57540    0.49340    0.04470    1.000
    C55      C        0.85820    0.44856    0.22619    1.000
    C56      C        0.73050    0.37165    0.19564    1.000
    C57      C        0.97510    0.52623    0.25609    1.000
    C58      C        0.81570    0.24440    0.98918    1.000
    C59      C        0.92200    0.23300    0.91086    1.000
    C60      C        0.70310    0.25715    0.06565    1.000
    C61      C        0.28330    0.42400    0.96030    1.000
    C62      C        0.67590    0.48940    0.09400    1.000
    H23      H        0.78000    0.46410    0.23360    1.000
    C63      C        0.87490    0.56070    0.24735    1.000
    C64      C        0.08000    0.54390    0.28673    1.000
    H24      H        0.73470    0.24450    0.97160    1.000
    C65      C        0.00960    0.20140    0.88939    1.000
    C66      C        0.83120    0.26020    0.88240    1.000
    C67      C        0.19330    0.43430    0.91650    1.000
    H25      H        0.27300    0.39280    0.97620    1.000
    H26      H        0.66760    0.46020    0.11310    1.000
    C68      C        0.77020    0.52330    0.10800    1.000
    H27      H        0.80200    0.55030    0.22770    1.000
    C69      C        0.87610    0.60970    0.26601    1.000
    C70      C        0.08420    0.59290    0.30464    1.000
    H28      H        0.14910    0.52160    0.29520    1.000
    H29      H        0.07480    0.18410    0.90820    1.000
    C71      C        0.99850    0.19580    0.83870    1.000
    C72      C        0.82390    0.25440    0.83231    1.000
    H30      H        0.77430    0.28260    0.89680    1.000
    H31      H        0.13440    0.40570    0.91130    1.000
    H32      H        0.81480    0.51080    0.13750    1.000
    H33      H        0.80470    0.63150    0.25970    1.000
    C73      C        0.98470    0.62624    0.29430    1.000
    H34      H        0.15680    0.60360    0.32430    1.000
    H35      H        0.05290    0.17290    0.82370    1.000
    C74      C        0.90780    0.22400    0.81076    1.000
    H36      H        0.75950    0.27190    0.81340    1.000
    C75      C        0.99040    0.67977    0.31346    1.000
    C76      C        0.90380    0.21620    0.75678    1.000
    O30      O        0.98670    0.19210    0.73858    1.000
    Zn9      Zn       0.81820    0.23247    0.66328    1.000
    O31      O        0.95950    0.19543    0.63613    1.000
    O32      O        0.69780    0.16452    0.66712    1.000
    O33      O        0.68920    0.25490    0.61287    1.000
    O34      O        0.91200    0.30588    0.66214    1.000
    O35      O        0.81230    0.24106    0.73351    1.000
    Zn10     Zn       0.11281    0.22674    0.66738    1.000
    Zn11     Zn       0.94543    0.20017    0.56739    1.000
    Zn12     Zn       0.95889    0.12736    0.66344    1.000
    C77      C        0.70740    0.12176    0.68711    1.000
    C78      C        0.68570    0.24631    0.56895    1.000
    O36      O        0.24080    0.17630    0.69038    1.000
    O37      O        0.10930    0.29229    0.69801    1.000
    O38      O        0.21510    0.24682    0.60962    1.000
    O39      O        0.78050    0.23292    0.54492    1.000
    O40      O        0.94410    0.13125    0.53748    1.000
    O41      O        0.09830    0.23184    0.54072    1.000
    O42      O        0.81400    0.09596    0.69353    1.000
    O43      O        0.95840    0.08245    0.60228    1.000
    O44      O        0.12760    0.10216    0.69171    1.000
    C79      C        0.58600    0.09676    0.70309    1.000
    C80      C        0.55600    0.25335    0.54060    1.000
    C81      C        0.95840    0.09130    0.55804    1.000
    C82      C        0.46890    0.12288    0.69488    1.000
    C83      C        0.58770    0.04727    0.72353    1.000
    C84      C        0.54730    0.25970    0.49018    1.000
    C85      C        0.44360    0.25002    0.56490    1.000
    C86      C        0.98060    0.04310    0.52820    1.000
    H37      H        0.46720    0.15570    0.68130    1.000
    C87      C        0.35500    0.09964    0.70698    1.000
    C88      C        0.47380    0.02518    0.73490    1.000
    H38      H        0.66660    0.02970    0.72920    1.000
    H39      H        0.62340    0.26260    0.47360    1.000
    C89      C        0.42990    0.26162    0.46529    1.000
    C90      C        0.32250    0.24982    0.53823    1.000
    H40      H        0.44790    0.24790    0.59880    1.000
    C91      C        0.90330    0.03700    0.48350    1.000
    C92      C        0.07540    0.00660    0.54470    1.000
    C93      C        0.35820    0.05144    0.72619    1.000
    C94      C        0.23050    0.12835    0.69564    1.000
    C95      C        0.47510    0.97377    0.75609    1.000
    C96      C        0.31570    0.25560    0.48918    1.000
    C97      C        0.42200    0.26700    0.41086    1.000
    C98      C        0.20310    0.24285    0.56565    1.000
    C99      C        0.78330    0.07600    0.46030    1.000
    C100     C        0.17590    0.01060    0.59400    1.000
    H41      H        0.28000    0.03590    0.73360    1.000
    C101     C        0.37490    0.93930    0.74735    1.000
    C102     C        0.58000    0.95610    0.78673    1.000
    H42      H        0.23470    0.25550    0.47160    1.000
    C103     C        0.50960    0.29860    0.38939    1.000
    C104     C        0.33120    0.23980    0.38240    1.000
    C105     C        0.69330    0.06570    0.41650    1.000
    H43      H        0.77300    0.10720    0.47620    1.000
    H44      H        0.16760    0.03980    0.61310    1.000
    C106     C        0.27020    0.97670    0.60800    1.000
    H45      H        0.30200    0.94970    0.72770    1.000
    C107     C        0.37610    0.89030    0.76601    1.000
    C108     C        0.58420    0.90710    0.80464    1.000
    H46      H        0.64910    0.97840    0.79520    1.000
    H47      H        0.57480    0.31590    0.40820    1.000
    C109     C        0.49850    0.30420    0.33870    1.000
    C110     C        0.32390    0.24560    0.33231    1.000
    H48      H        0.27430    0.21740    0.39680    1.000
    H49      H        0.63440    0.09430    0.41130    1.000
    H50      H        0.31480    0.98920    0.63750    1.000
    H51      H        0.30470    0.86850    0.75970    1.000
    C111     C        0.48470    0.87376    0.79430    1.000
    H52      H        0.65680    0.89640    0.82430    1.000
    H53      H        0.55290    0.32710    0.32370    1.000
    C112     C        0.40780    0.27600    0.31076    1.000
    H54      H        0.25950    0.22810    0.31340    1.000
    C113     C        0.49040    0.82023    0.81346    1.000
    C114     C        0.40380    0.28380    0.25678    1.000
    O45      O        0.48670    0.30790    0.23858    1.000
    Zn13     Zn       0.68180    0.73247    0.83672    1.000
    O46      O        0.54050    0.69543    0.86387    1.000
    O47      O        0.80220    0.66452    0.83288    1.000
    O48      O        0.81080    0.75490    0.88713    1.000
    O49      O        0.58800    0.80588    0.83786    1.000
    O50      O        0.68770    0.74106    0.76649    1.000
    Zn14     Zn       0.38719    0.72674    0.83262    1.000
    Zn15     Zn       0.55457    0.70017    0.93261    1.000
    Zn16     Zn       0.54111    0.62736    0.83656    1.000
    C115     C        0.79260    0.62176    0.81289    1.000
    C116     C        0.81430    0.74631    0.93105    1.000
    O51      O        0.25920    0.67630    0.80962    1.000
    O52      O        0.39070    0.79229    0.80199    1.000
    O53      O        0.28490    0.74682    0.89038    1.000
    O54      O        0.71950    0.73292    0.95508    1.000
    O55      O        0.55590    0.63125    0.96252    1.000
    O56      O        0.40170    0.73184    0.95928    1.000
    O57      O        0.68600    0.59596    0.80647    1.000
    O58      O        0.54160    0.58245    0.89772    1.000
    O59      O        0.37240    0.60216    0.80829    1.000
    C117     C        0.91400    0.59676    0.79691    1.000
    C118     C        0.94400    0.75335    0.95940    1.000
    C119     C        0.54160    0.59130    0.94196    1.000
    C120     C        0.03110    0.62288    0.80512    1.000
    C121     C        0.91230    0.54727    0.77647    1.000
    C122     C        0.95270    0.75970    0.00982    1.000
    C123     C        0.05640    0.75002    0.93510    1.000
    C124     C        0.51940    0.54310    0.97180    1.000
    H55      H        0.03280    0.65570    0.81870    1.000
    C125     C        0.14500    0.59964    0.79302    1.000
    C126     C        0.02620    0.52518    0.76510    1.000
    H56      H        0.83340    0.52970    0.77080    1.000
    H57      H        0.87660    0.76260    0.02640    1.000
    C127     C        0.07010    0.76162    0.03471    1.000
    C128     C        0.17750    0.74982    0.96177    1.000
    H58      H        0.05210    0.74790    0.90120    1.000
    C129     C        0.59670    0.53700    0.01650    1.000
    C130     C        0.42460    0.50660    0.95530    1.000
    C131     C        0.14180    0.55144    0.77381    1.000
    C132     C        0.26950    0.62835    0.80436    1.000
    C133     C        0.02490    0.47377    0.74391    1.000
    C134     C        0.18430    0.75560    0.01082    1.000
    C135     C        0.07800    0.76700    0.08914    1.000
    C136     C        0.29690    0.74285    0.93435    1.000
    C137     C        0.71670    0.57600    0.03970    1.000
    C138     C        0.32410    0.51060    0.90600    1.000
    H59      H        0.22000    0.53590    0.76640    1.000
    C139     C        0.12510    0.43930    0.75265    1.000
    C140     C        0.92000    0.45610    0.71327    1.000
    H60      H        0.26530    0.75550    0.02840    1.000
    C141     C        0.99040    0.79860    0.11061    1.000
    C142     C        0.16880    0.73980    0.11760    1.000
    C143     C        0.80670    0.56570    0.08350    1.000
    H61      H        0.72700    0.60720    0.02380    1.000
    H62      H        0.33240    0.53980    0.88690    1.000
    C144     C        0.22980    0.47670    0.89200    1.000
    H63      H        0.19800    0.44970    0.77230    1.000
    C145     C        0.12390    0.39030    0.73399    1.000
    C146     C        0.91580    0.40710    0.69536    1.000
    H64      H        0.85090    0.47840    0.70480    1.000
    H65      H        0.92520    0.81590    0.09180    1.000
    C147     C        0.00150    0.80420    0.16130    1.000
    C148     C        0.17610    0.74560    0.16769    1.000
    H66      H        0.22570    0.71740    0.10320    1.000
    H67      H        0.86560    0.59430    0.08870    1.000
    H68      H        0.18520    0.48920    0.86250    1.000
    H69      H        0.19530    0.36850    0.74030    1.000
    C149     C        0.01530    0.37376    0.70570    1.000
    H70      H        0.84320    0.39640    0.67570    1.000
    H71      H        0.94710    0.82710    0.17630    1.000
    C150     C        0.09220    0.77600    0.18924    1.000
    H72      H        0.24050    0.72810    0.18660    1.000
    C151     C        0.00960    0.32023    0.68654    1.000
    C152     C        0.09620    0.78380    0.24322    1.000
    O60      O        0.01330    0.80790    0.26142    1.000
