# CIF file generated by openbabel 3.1.0, see https://openbabel.org
data_I
_chemical_name_common 'XEDLUN01_clean'
_cell_length_a 10.137
_cell_length_b 15.745
_cell_length_c 15.988
_cell_angle_alpha 90
_cell_angle_beta 90
_cell_angle_gamma 107.76
_space_group_name_H-M_alt 'P 1'
_space_group_name_Hall 'P 1'
loop_
    _symmetry_equiv_pos_as_xyz
    x,y,z
loop_
    _atom_site_label
    _atom_site_type_symbol
    _atom_site_fract_x
    _atom_site_fract_y
    _atom_site_fract_z
    _atom_site_occupancy
    Ti1      Ti       0.61780    0.59240    0.03808    1.000
    Ti2      Ti       0.88220    0.90760    0.53808    1.000
    Ti3      Ti       0.38220    0.40760    0.96192    1.000
    Ti4      Ti       0.11780    0.09240    0.46192    1.000
    H1       H        0.70300    0.35880    0.98650    1.000
    H2       H        0.81020    0.27440    0.06550    1.000
    H3       H        0.80740    0.15360    0.14160    1.000
    H4       H        0.91430    0.06940    0.22090    1.000
    H5       H        0.96760    0.24540    0.40920    1.000
    H6       H        0.86080    0.32930    0.33060    1.000
    H7       H        0.66280    0.34980    0.27820    1.000
    H8       H        0.54940    0.43180    0.19840    1.000
    H9       H        0.81700    0.78290    0.12080    1.000
    H10      H        0.97980    0.92110    0.12020    1.000
    H11      H        0.85140    0.96680    0.89360    1.000
    H12      H        0.69920    0.82910    0.88900    1.000
    H13      H        0.79700    0.14120    0.48650    1.000
    H14      H        0.68980    0.22560    0.56550    1.000
    H15      H        0.69260    0.34640    0.64160    1.000
    H16      H        0.58570    0.43060    0.72090    1.000
    H17      H        0.53240    0.25460    0.90920    1.000
    H18      H        0.63920    0.17070    0.83060    1.000
    H19      H        0.83720    0.15020    0.77820    1.000
    H20      H        0.95060    0.06820    0.69840    1.000
    H21      H        0.68300    0.71710    0.62080    1.000
    H22      H        0.52020    0.57890    0.62020    1.000
    H23      H        0.64860    0.53320    0.39360    1.000
    H24      H        0.80080    0.67090    0.38900    1.000
    H25      H        0.29700    0.64120    0.01350    1.000
    H26      H        0.18980    0.72560    0.93450    1.000
    H27      H        0.19260    0.84640    0.85840    1.000
    H28      H        0.08570    0.93060    0.77910    1.000
    H29      H        0.03240    0.75460    0.59080    1.000
    H30      H        0.13920    0.67070    0.66940    1.000
    H31      H        0.33720    0.65020    0.72180    1.000
    H32      H        0.45060    0.56820    0.80160    1.000
    H33      H        0.18300    0.21710    0.87920    1.000
    H34      H        0.02020    0.07890    0.87980    1.000
    H35      H        0.14860    0.03320    0.10640    1.000
    H36      H        0.30080    0.17090    0.11100    1.000
    H37      H        0.20300    0.85880    0.51350    1.000
    H38      H        0.31020    0.77440    0.43450    1.000
    H39      H        0.30740    0.65360    0.35840    1.000
    H40      H        0.41430    0.56940    0.27910    1.000
    H41      H        0.46760    0.74540    0.09080    1.000
    H42      H        0.36080    0.82930    0.16940    1.000
    H43      H        0.16280    0.84980    0.22180    1.000
    H44      H        0.04940    0.93180    0.30160    1.000
    H45      H        0.31700    0.28290    0.37920    1.000
    H46      H        0.47980    0.42110    0.37980    1.000
    H47      H        0.35140    0.46680    0.60640    1.000
    H48      H        0.19920    0.32910    0.61100    1.000
    C1       C        0.61780    0.40540    0.08620    1.000
    C2       C        0.69450    0.35720    0.04560    1.000
    C3       C        0.75800    0.30660    0.09300    1.000
    C4       C        0.74640    0.30180    0.18020    1.000
    C5       C        0.81610    0.24800    0.22860    1.000
    C6       C        0.83740    0.17220    0.19680    1.000
    C7       C        0.90300    0.12220    0.24400    1.000
    C8       C        0.95140    0.14760    0.32260    1.000
    C9       C        0.93430    0.22600    0.35480    1.000
    C10      C        0.86950    0.27550    0.30820    1.000
    C11      C        0.67040    0.35040    0.21890    1.000
    C12      C        0.60420    0.40070    0.17100    1.000
    C13      C        0.73630    0.78530    0.00400    1.000
    C14      C        0.82580    0.81880    0.07220    1.000
    C15      C        0.92520    0.90150    0.07170    1.000
    C16      C        0.94720    0.95700    0.00120    1.000
    C17      C        0.85110    0.92740    0.93860    1.000
    C18      C        0.75580    0.84600    0.93700    1.000
    C19      C        0.88220    0.09460    0.58620    1.000
    C20      C        0.80550    0.14280    0.54560    1.000
    C21      C        0.74200    0.19340    0.59300    1.000
    C22      C        0.75360    0.19820    0.68020    1.000
    C23      C        0.68390    0.25200    0.72860    1.000
    C24      C        0.66260    0.32780    0.69680    1.000
    C25      C        0.59700    0.37780    0.74400    1.000
    C26      C        0.54860    0.35240    0.82260    1.000
    C27      C        0.56570    0.27400    0.85480    1.000
    C28      C        0.63050    0.22450    0.80820    1.000
    C29      C        0.82960    0.14960    0.71890    1.000
    C30      C        0.89580    0.09930    0.67100    1.000
    C31      C        0.76370    0.71470    0.50400    1.000
    C32      C        0.67420    0.68120    0.57220    1.000
    C33      C        0.57480    0.59850    0.57170    1.000
    C34      C        0.55280    0.54300    0.50120    1.000
    C35      C        0.64890    0.57260    0.43860    1.000
    C36      C        0.74420    0.65400    0.43700    1.000
    C37      C        0.38220    0.59460    0.91380    1.000
    C38      C        0.30550    0.64280    0.95440    1.000
    C39      C        0.24200    0.69340    0.90700    1.000
    C40      C        0.25360    0.69820    0.81980    1.000
    C41      C        0.18390    0.75200    0.77140    1.000
    C42      C        0.16260    0.82780    0.80320    1.000
    C43      C        0.09700    0.87780    0.75600    1.000
    C44      C        0.04860    0.85240    0.67740    1.000
    C45      C        0.06570    0.77400    0.64520    1.000
    C46      C        0.13050    0.72450    0.69180    1.000
    C47      C        0.32960    0.64960    0.78110    1.000
    C48      C        0.39580    0.59930    0.82900    1.000
    C49      C        0.26370    0.21470    0.99600    1.000
    C50      C        0.17420    0.18120    0.92780    1.000
    C51      C        0.07480    0.09850    0.92830    1.000
    C52      C        0.05280    0.04300    0.99880    1.000
    C53      C        0.14890    0.07260    0.06140    1.000
    C54      C        0.24420    0.15400    0.06300    1.000
    C55      C        0.11780    0.90540    0.41380    1.000
    C56      C        0.19450    0.85720    0.45440    1.000
    C57      C        0.25800    0.80660    0.40700    1.000
    C58      C        0.24640    0.80180    0.31980    1.000
    C59      C        0.31610    0.74800    0.27140    1.000
    C60      C        0.33740    0.67220    0.30320    1.000
    C61      C        0.40300    0.62220    0.25600    1.000
    C62      C        0.45140    0.64760    0.17740    1.000
    C63      C        0.43430    0.72600    0.14520    1.000
    C64      C        0.36950    0.77550    0.19180    1.000
    C65      C        0.17040    0.85040    0.28110    1.000
    C66      C        0.10420    0.90070    0.32900    1.000
    C67      C        0.23630    0.28530    0.49600    1.000
    C68      C        0.32580    0.31880    0.42780    1.000
    C69      C        0.42520    0.40150    0.42830    1.000
    C70      C        0.44720    0.45700    0.49880    1.000
    C71      C        0.35110    0.42740    0.56140    1.000
    C72      C        0.25580    0.34600    0.56300    1.000
    O1       O        0.55540    0.45540    0.03940    1.000
    O2       O        0.00520    0.09390    0.36910    1.000
    O3       O        0.64260    0.70710    0.00300    1.000
    O4       O        0.94460    0.04460    0.53940    1.000
    O5       O        0.49480    0.40610    0.86910    1.000
    O6       O        0.85740    0.79290    0.50300    1.000
    O7       O        0.44460    0.54460    0.96060    1.000
    O8       O        0.99480    0.90610    0.63090    1.000
    O9       O        0.35740    0.29290    0.99700    1.000
    O10      O        0.05540    0.95540    0.46060    1.000
    O11      O        0.50520    0.59390    0.13090    1.000
    O12      O        0.14260    0.20710    0.49700    1.000
