# CIF file generated by openbabel 3.1.0, see https://openbabel.org
data_I
_chemical_name_common 'image0'
_cell_length_a 21.348
_cell_length_b 7.132
_cell_length_c 15.175
_cell_angle_alpha 90
_cell_angle_beta 90
_cell_angle_gamma 90
_space_group_name_H-M_alt 'P 1'
_space_group_name_Hall 'P 1'
loop_
    _symmetry_equiv_pos_as_xyz
    x,y,z
loop_
    _atom_site_label
    _atom_site_type_symbol
    _atom_site_fract_x
    _atom_site_fract_y
    _atom_site_fract_z
    _atom_site_occupancy
    N1       N        0.43360    0.15250    0.43820    1.000
    C1       C        0.38740    0.90130    0.60960    1.000
    H1       H        0.37640    0.02560    0.61990    1.000
    C2       C        0.25730    0.61140    0.68430    1.000
    C3       C        0.29510    0.61150    0.75910    1.000
    H2       H        0.26200    0.51970    0.63850    1.000
    H3       H        0.32660    0.51630    0.76510    1.000
    N2       N        0.93360    0.65250    0.93820    1.000
    C4       C        0.88740    0.40130    0.10960    1.000
    H4       H        0.87640    0.52560    0.11990    1.000
    C5       C        0.75730    0.11140    0.18430    1.000
    C6       C        0.79510    0.11150    0.25910    1.000
    H5       H        0.76200    0.01970    0.13850    1.000
    H6       H        0.82660    0.01630    0.26510    1.000
    N3       N        0.56640    0.34750    0.43820    1.000
    C7       C        0.61260    0.59870    0.60960    1.000
    H7       H        0.62360    0.47440    0.61990    1.000
    C8       C        0.74270    0.88860    0.68430    1.000
    C9       C        0.70490    0.88850    0.75910    1.000
    H8       H        0.73800    0.98030    0.63850    1.000
    H9       H        0.67340    0.98370    0.76510    1.000
    N4       N        0.06640    0.84750    0.93820    1.000
    C10      C        0.11260    0.09870    0.10960    1.000
    H10      H        0.12360    0.97440    0.11990    1.000
    C11      C        0.24270    0.38860    0.18430    1.000
    C12      C        0.20490    0.38850    0.25910    1.000
    H11      H        0.23800    0.48030    0.13850    1.000
    H12      H        0.17340    0.48370    0.26510    1.000
    N5       N        0.56640    0.65250    0.56180    1.000
    C13      C        0.61260    0.40130    0.39040    1.000
    H13      H        0.62360    0.52560    0.38010    1.000
    C14      C        0.74270    0.11140    0.31570    1.000
    C15      C        0.70490    0.11150    0.24090    1.000
    H14      H        0.73800    0.01970    0.36150    1.000
    H15      H        0.67340    0.01630    0.23490    1.000
    N6       N        0.06640    0.15250    0.06180    1.000
    C16      C        0.11260    0.90130    0.89040    1.000
    H16      H        0.12360    0.02560    0.88010    1.000
    C17      C        0.24270    0.61140    0.81570    1.000
    C18      C        0.20490    0.61150    0.74090    1.000
    H17      H        0.23800    0.51970    0.86150    1.000
    H18      H        0.17340    0.51630    0.73490    1.000
    N7       N        0.43360    0.84750    0.56180    1.000
    C19      C        0.38740    0.09870    0.39040    1.000
    H19      H        0.37640    0.97440    0.38010    1.000
    C20      C        0.25730    0.38860    0.31570    1.000
    C21      C        0.29510    0.38850    0.24090    1.000
    H20      H        0.26200    0.48030    0.36150    1.000
    H21      H        0.32660    0.48370    0.23490    1.000
    N8       N        0.93360    0.34750    0.06180    1.000
    C22      C        0.88740    0.59870    0.89040    1.000
    H22      H        0.87640    0.47440    0.88010    1.000
    C23      C        0.75730    0.88860    0.81570    1.000
    C24      C        0.79510    0.88850    0.74090    1.000
    H23      H        0.76200    0.98030    0.86150    1.000
    H24      H        0.82660    0.98370    0.73490    1.000
    N9       N        0.56640    0.84750    0.56180    1.000
    C25      C        0.61260    0.09870    0.39040    1.000
    H25      H        0.62360    0.97440    0.38010    1.000
    C26      C        0.74270    0.38860    0.31570    1.000
    C27      C        0.70490    0.38850    0.24090    1.000
    H26      H        0.73800    0.48030    0.36150    1.000
    H27      H        0.67340    0.48370    0.23490    1.000
    N10      N        0.06640    0.34750    0.06180    1.000
    C28      C        0.11260    0.59870    0.89040    1.000
    H28      H        0.12360    0.47440    0.88010    1.000
    C29      C        0.24270    0.88860    0.81570    1.000
    C30      C        0.20490    0.88850    0.74090    1.000
    H29      H        0.23800    0.98030    0.86150    1.000
    H30      H        0.17340    0.98370    0.73490    1.000
    N11      N        0.43360    0.65250    0.56180    1.000
    C31      C        0.38740    0.40130    0.39040    1.000
    H31      H        0.37640    0.52560    0.38010    1.000
    C32      C        0.25730    0.11140    0.31570    1.000
    C33      C        0.29510    0.11150    0.24090    1.000
    H32      H        0.26200    0.01970    0.36150    1.000
    H33      H        0.32660    0.01630    0.23490    1.000
    N12      N        0.93360    0.15250    0.06180    1.000
    C34      C        0.88740    0.90130    0.89040    1.000
    H34      H        0.87640    0.02560    0.88010    1.000
    C35      C        0.75730    0.61140    0.81570    1.000
    C36      C        0.79510    0.61150    0.74090    1.000
    H35      H        0.76200    0.51970    0.86150    1.000
    H36      H        0.82660    0.51630    0.73490    1.000
    N13      N        0.43360    0.34750    0.43820    1.000
    C37      C        0.38740    0.59870    0.60960    1.000
    H37      H        0.37640    0.47440    0.61990    1.000
    C38      C        0.25730    0.88860    0.68430    1.000
    C39      C        0.29510    0.88850    0.75910    1.000
    H38      H        0.26200    0.98030    0.63850    1.000
    H39      H        0.32660    0.98370    0.76510    1.000
    N14      N        0.93360    0.84750    0.93820    1.000
    C40      C        0.88740    0.09870    0.10960    1.000
    H40      H        0.87640    0.97440    0.11990    1.000
    C41      C        0.75730    0.38860    0.18430    1.000
    C42      C        0.79510    0.38850    0.25910    1.000
    H41      H        0.76200    0.48030    0.13850    1.000
    H42      H        0.82660    0.48370    0.26510    1.000
    N15      N        0.56640    0.15250    0.43820    1.000
    C43      C        0.61260    0.90130    0.60960    1.000
    H43      H        0.62360    0.02560    0.61990    1.000
    C44      C        0.74270    0.61140    0.68430    1.000
    C45      C        0.70490    0.61150    0.75910    1.000
    H44      H        0.73800    0.51970    0.63850    1.000
    H45      H        0.67340    0.51630    0.76510    1.000
    N16      N        0.06640    0.65250    0.93820    1.000
    C46      C        0.11260    0.40130    0.10960    1.000
    H46      H        0.12360    0.52560    0.11990    1.000
    C47      C        0.24270    0.11140    0.18430    1.000
    C48      C        0.20490    0.11150    0.25910    1.000
    H47      H        0.23800    0.01970    0.13850    1.000
    H48      H        0.17340    0.01630    0.26510    1.000
    Cu1      Cu       0.50000    0.00000    0.50000    1.000
    Cu2      Cu       0.00000    0.50000    0.00000    1.000
    Cu3      Cu       0.50000    0.50000    0.50000    1.000
    Cu4      Cu       0.00000    0.00000    0.00000    1.000
    N17      N        0.35710    0.75000    0.64350    1.000
    C49      C        0.30170    0.75000    0.69670    1.000
    N18      N        0.85710    0.25000    0.14350    1.000
    C50      C        0.80170    0.25000    0.19670    1.000
    N19      N        0.64290    0.75000    0.64350    1.000
    C51      C        0.69830    0.75000    0.69670    1.000
    N20      N        0.14290    0.25000    0.14350    1.000
    C52      C        0.19830    0.25000    0.19670    1.000
    N21      N        0.64290    0.25000    0.35650    1.000
    C53      C        0.69830    0.25000    0.30330    1.000
    N22      N        0.14290    0.75000    0.85650    1.000
    C54      C        0.19830    0.75000    0.80330    1.000
    N23      N        0.35710    0.25000    0.35650    1.000
    C55      C        0.30170    0.25000    0.30330    1.000
    N24      N        0.85710    0.75000    0.85650    1.000
    C56      C        0.80170    0.75000    0.80330    1.000
