# CIF file generated by openbabel 3.1.0, see https://openbabel.org
data_I
_chemical_name_common 'FITHAS_charged'
_cell_length_a 12.8061
_cell_length_b 20.7872
_cell_length_c 21.6247
_cell_angle_alpha 103.246
_cell_angle_beta 90
_cell_angle_gamma 90
_space_group_name_H-M_alt 'P 1'
_space_group_name_Hall 'P 1'
loop_
    _symmetry_equiv_pos_as_xyz
    x,y,z
loop_
    _atom_site_label
    _atom_site_type_symbol
    _atom_site_fract_x
    _atom_site_fract_y
    _atom_site_fract_z
    _atom_site_occupancy
    Sc1      Sc       0.78595    0.99924    0.24225    1.000
    Sc2      Sc       0.28595    0.50076    0.25775    1.000
    Sc3      Sc       0.21405    0.00076    0.75775    1.000
    Sc4      Sc       0.71405    0.49924    0.74225    1.000
    H1       H        0.84850    0.81530    0.30400    1.000
    H2       H        0.75180    0.72790    0.32310    1.000
    H3       H        0.48940    0.82820    0.30180    1.000
    H4       H        0.59290    0.91490    0.28590    1.000
    H5       H        0.96880    0.07630    0.18390    1.000
    H6       H        0.07520    0.16150    0.16870    1.000
    H7       H        0.81720    0.27540    0.17390    1.000
    H8       H        0.71620    0.18750    0.18720    1.000
    H9       H        0.99630    0.92210    0.32000    1.000
    H10      H        0.02760    0.91010    0.42230    1.000
    H11      H        0.95010    0.10030    0.48940    1.000
    H12      H        0.92030    0.11060    0.38500    1.000
    H13      H        0.01940    0.44620    0.18140    1.000
    H14      H        0.91000    0.35640    0.17710    1.000
    H15      H        0.16510    0.23950    0.15830    1.000
    H16      H        0.26790    0.33140    0.16080    1.000
    H17      H        0.56200    0.55200    0.30900    1.000
    H18      H        0.65790    0.64180    0.29710    1.000
    H19      H        0.40900    0.75910    0.35170    1.000
    H20      H        0.31310    0.66880    0.36060    1.000
    H21      H        0.47110    0.01670    0.18140    1.000
    H22      H        0.40040    0.03220    0.08790    1.000
    H23      H        0.65820    0.95620    0.99670    1.000
    H24      H        0.72790    0.94720    0.09170    1.000
    H25      H        0.34850    0.68470    0.19600    1.000
    H26      H        0.25180    0.77210    0.17690    1.000
    H27      H        0.98940    0.67180    0.19820    1.000
    H28      H        0.09290    0.58510    0.21410    1.000
    H29      H        0.46880    0.42370    0.31610    1.000
    H30      H        0.57520    0.33850    0.33130    1.000
    H31      H        0.31720    0.22460    0.32610    1.000
    H32      H        0.21620    0.31250    0.31280    1.000
    H33      H        0.49630    0.57790    0.18000    1.000
    H34      H        0.52760    0.58990    0.07770    1.000
    H35      H        0.45010    0.39970    0.01060    1.000
    H36      H        0.42030    0.38940    0.11500    1.000
    H37      H        0.51940    0.05380    0.31860    1.000
    H38      H        0.41000    0.14360    0.32290    1.000
    H39      H        0.66510    0.26050    0.34170    1.000
    H40      H        0.76790    0.16860    0.33920    1.000
    H41      H        0.06200    0.94800    0.19100    1.000
    H42      H        0.15790    0.85820    0.20290    1.000
    H43      H        0.90900    0.74090    0.14830    1.000
    H44      H        0.81310    0.83120    0.13940    1.000
    H45      H        0.97110    0.48330    0.31860    1.000
    H46      H        0.90040    0.46780    0.41210    1.000
    H47      H        0.15820    0.54380    0.50330    1.000
    H48      H        0.22790    0.55280    0.40830    1.000
    H49      H        0.15150    0.18470    0.69600    1.000
    H50      H        0.24820    0.27210    0.67690    1.000
    H51      H        0.51060    0.17180    0.69820    1.000
    H52      H        0.40710    0.08510    0.71410    1.000
    H53      H        0.03120    0.92370    0.81610    1.000
    H54      H        0.92480    0.83850    0.83130    1.000
    H55      H        0.18280    0.72460    0.82610    1.000
    H56      H        0.28380    0.81250    0.81280    1.000
    H57      H        0.00370    0.07790    0.68000    1.000
    H58      H        0.97240    0.08990    0.57770    1.000
    H59      H        0.04990    0.89970    0.51060    1.000
    H60      H        0.07970    0.88940    0.61500    1.000
    H61      H        0.98060    0.55380    0.81860    1.000
    H62      H        0.09000    0.64360    0.82290    1.000
    H63      H        0.83490    0.76050    0.84170    1.000
    H64      H        0.73210    0.66860    0.83920    1.000
    H65      H        0.43800    0.44800    0.69100    1.000
    H66      H        0.34210    0.35820    0.70290    1.000
    H67      H        0.59100    0.24090    0.64830    1.000
    H68      H        0.68690    0.33120    0.63940    1.000
    H69      H        0.52890    0.98330    0.81860    1.000
    H70      H        0.59960    0.96780    0.91210    1.000
    H71      H        0.34180    0.04380    0.00330    1.000
    H72      H        0.27210    0.05280    0.90830    1.000
    H73      H        0.65150    0.31530    0.80400    1.000
    H74      H        0.74820    0.22790    0.82310    1.000
    H75      H        0.01060    0.32820    0.80180    1.000
    H76      H        0.90710    0.41490    0.78590    1.000
    H77      H        0.53120    0.57630    0.68390    1.000
    H78      H        0.42480    0.66150    0.66870    1.000
    H79      H        0.68280    0.77540    0.67390    1.000
    H80      H        0.78380    0.68750    0.68720    1.000
    H81      H        0.50370    0.42210    0.82000    1.000
    H82      H        0.47240    0.41010    0.92230    1.000
    H83      H        0.54990    0.60030    0.98940    1.000
    H84      H        0.57970    0.61060    0.88500    1.000
    H85      H        0.48060    0.94620    0.68140    1.000
    H86      H        0.59000    0.85640    0.67710    1.000
    H87      H        0.33490    0.73950    0.65830    1.000
    H88      H        0.23210    0.83140    0.66080    1.000
    H89      H        0.93800    0.05200    0.80900    1.000
    H90      H        0.84210    0.14180    0.79710    1.000
    H91      H        0.09100    0.25910    0.85170    1.000
    H92      H        0.18690    0.16880    0.86060    1.000
    H93      H        0.02890    0.51670    0.68140    1.000
    H94      H        0.09960    0.53220    0.58790    1.000
    H95      H        0.84180    0.45620    0.49670    1.000
    H96      H        0.77210    0.44720    0.59170    1.000
    C1       C        0.77440    0.81750    0.30390    1.000
    C2       C        0.71720    0.76570    0.31540    1.000
    C3       C        0.60950    0.76830    0.31580    1.000
    C4       C        0.56330    0.82490    0.30320    1.000
    C5       C        0.62460    0.87590    0.29290    1.000
    C6       C        0.93890    0.11760    0.18200    1.000
    C7       C        0.00190    0.16810    0.17300    1.000
    C8       C        0.95890    0.22920    0.17010    1.000
    C9       C        0.84980    0.23490    0.17580    1.000
    C10      C        0.79000    0.18330    0.18420    1.000
    C11      C        0.98630    0.95860    0.35500    1.000
    C12      C        0.00500    0.95160    0.41580    1.000
    C13      C        0.99170    0.00310    0.46630    1.000
    C14      C        0.95960    0.06320    0.45480    1.000
    C15      C        0.94140    0.06940    0.39290    1.000
    C16      C        0.04830    0.40330    0.17640    1.000
    C17      C        0.98350    0.34990    0.17430    1.000
    C18      C        0.02380    0.28660    0.16820    1.000
    C19      C        0.13300    0.28160    0.16300    1.000
    C20      C        0.19420    0.33600    0.16470    1.000
    C21      C        0.53110    0.59470    0.31680    1.000
    C22      C        0.58730    0.64780    0.31080    1.000
    C23      C        0.54500    0.71100    0.32390    1.000
    C24      C        0.44090    0.71670    0.34240    1.000
    C25      C        0.38420    0.66380    0.34770    1.000
    C26      C        0.51060    0.00500    0.14320    1.000
    C27      C        0.46830    0.01380    0.08750    1.000
    C28      C        0.52240    0.99630    0.03070    1.000
    C29      C        0.61830    0.97040    0.03440    1.000
    C30      C        0.65910    0.96400    0.09070    1.000
    C31      C        0.27440    0.68250    0.19610    1.000
    C32      C        0.21720    0.73430    0.18460    1.000
    C33      C        0.10950    0.73170    0.18420    1.000
    C34      C        0.06330    0.67510    0.19680    1.000
    C35      C        0.12460    0.62410    0.20710    1.000
    C36      C        0.43890    0.38240    0.31800    1.000
    C37      C        0.50190    0.33190    0.32700    1.000
    C38      C        0.45890    0.27080    0.32990    1.000
    C39      C        0.34980    0.26510    0.32420    1.000
    C40      C        0.29000    0.31670    0.31580    1.000
    C41      C        0.48630    0.54140    0.14500    1.000
    C42      C        0.50500    0.54840    0.08420    1.000
    C43      C        0.49170    0.49690    0.03370    1.000
    C44      C        0.45960    0.43680    0.04520    1.000
    C45      C        0.44140    0.43060    0.10710    1.000
    C46      C        0.54830    0.09670    0.32360    1.000
    C47      C        0.48350    0.15010    0.32570    1.000
    C48      C        0.52380    0.21340    0.33180    1.000
    C49      C        0.63300    0.21840    0.33700    1.000
    C50      C        0.69420    0.16400    0.33530    1.000
    C51      C        0.03110    0.90530    0.18320    1.000
    C52      C        0.08730    0.85220    0.18920    1.000
    C53      C        0.04500    0.78900    0.17610    1.000
    C54      C        0.94090    0.78330    0.15760    1.000
    C55      C        0.88420    0.83620    0.15230    1.000
    C56      C        0.01060    0.49500    0.35680    1.000
    C57      C        0.96830    0.48620    0.41250    1.000
    C58      C        0.02240    0.50370    0.46930    1.000
    C59      C        0.11830    0.52960    0.46560    1.000
    C60      C        0.15910    0.53600    0.40930    1.000
    C61      C        0.22560    0.18250    0.69610    1.000
    C62      C        0.28280    0.23430    0.68460    1.000
    C63      C        0.39050    0.23170    0.68420    1.000
    C64      C        0.43670    0.17510    0.69680    1.000
    C65      C        0.37540    0.12410    0.70710    1.000
    C66      C        0.06110    0.88240    0.81800    1.000
    C67      C        0.99810    0.83190    0.82700    1.000
    C68      C        0.04110    0.77080    0.82990    1.000
    C69      C        0.15020    0.76510    0.82420    1.000
    C70      C        0.21000    0.81670    0.81580    1.000
    C71      C        0.01370    0.04140    0.64500    1.000
    C72      C        0.99500    0.04840    0.58420    1.000
    C73      C        0.00830    0.99690    0.53370    1.000
    C74      C        0.04040    0.93680    0.54520    1.000
    C75      C        0.05860    0.93060    0.60710    1.000
    C76      C        0.95170    0.59670    0.82360    1.000
    C77      C        0.01650    0.65010    0.82570    1.000
    C78      C        0.97620    0.71340    0.83180    1.000
    C79      C        0.86700    0.71840    0.83700    1.000
    C80      C        0.80580    0.66400    0.83530    1.000
    C81      C        0.46890    0.40530    0.68320    1.000
    C82      C        0.41270    0.35220    0.68920    1.000
    C83      C        0.45500    0.28900    0.67610    1.000
    C84      C        0.55910    0.28330    0.65760    1.000
    C85      C        0.61580    0.33620    0.65230    1.000
    C86      C        0.48940    0.99500    0.85680    1.000
    C87      C        0.53170    0.98620    0.91250    1.000
    C88      C        0.47760    0.00370    0.96930    1.000
    C89      C        0.38170    0.02960    0.96560    1.000
    C90      C        0.34090    0.03600    0.90930    1.000
    C91      C        0.72560    0.31750    0.80390    1.000
    C92      C        0.78280    0.26570    0.81540    1.000
    C93      C        0.89050    0.26830    0.81580    1.000
    C94      C        0.93670    0.32490    0.80320    1.000
    C95      C        0.87540    0.37590    0.79290    1.000
    C96      C        0.56110    0.61760    0.68200    1.000
    C97      C        0.49810    0.66810    0.67300    1.000
    C98      C        0.54110    0.72920    0.67010    1.000
    C99      C        0.65020    0.73490    0.67580    1.000
    C100     C        0.71000    0.68330    0.68420    1.000
    C101     C        0.51370    0.45860    0.85500    1.000
    C102     C        0.49500    0.45160    0.91580    1.000
    C103     C        0.50830    0.50310    0.96630    1.000
    C104     C        0.54040    0.56320    0.95480    1.000
    C105     C        0.55860    0.56940    0.89290    1.000
    C106     C        0.45170    0.90330    0.67640    1.000
    C107     C        0.51650    0.84990    0.67430    1.000
    C108     C        0.47620    0.78660    0.66820    1.000
    C109     C        0.36700    0.78160    0.66300    1.000
    C110     C        0.30580    0.83600    0.66470    1.000
    C111     C        0.96890    0.09470    0.81680    1.000
    C112     C        0.91270    0.14780    0.81080    1.000
    C113     C        0.95500    0.21100    0.82390    1.000
    C114     C        0.05910    0.21670    0.84240    1.000
    C115     C        0.11580    0.16380    0.84770    1.000
    C116     C        0.98940    0.50500    0.64320    1.000
    C117     C        0.03170    0.51380    0.58750    1.000
    C118     C        0.97760    0.49630    0.53070    1.000
    C119     C        0.88170    0.47040    0.53440    1.000
    C120     C        0.84090    0.46400    0.59070    1.000
    N1       N        0.72800    0.87040    0.29260    1.000
    N2       N        0.83640    0.12640    0.18820    1.000
    N3       N        0.95400    0.01660    0.34480    1.000
    N4       N        0.15070    0.39490    0.17160    1.000
    N5       N        0.42950    0.60350    0.33440    1.000
    N6       N        0.60480    0.98070    0.14450    1.000
    N7       N        0.22800    0.62960    0.20740    1.000
    N8       N        0.33640    0.37360    0.31180    1.000
    N9       N        0.45400    0.48340    0.15520    1.000
    N10      N        0.65070    0.10510    0.32840    1.000
    N11      N        0.92950    0.89650    0.16560    1.000
    N12      N        0.10480    0.51930    0.35550    1.000
    N13      N        0.27200    0.12960    0.70740    1.000
    N14      N        0.16360    0.87360    0.81180    1.000
    N15      N        0.04600    0.98340    0.65520    1.000
    N16      N        0.84930    0.60510    0.82840    1.000
    N17      N        0.57050    0.39650    0.66560    1.000
    N18      N        0.39520    0.01930    0.85550    1.000
    N19      N        0.77200    0.37040    0.79260    1.000
    N20      N        0.66360    0.62640    0.68820    1.000
    N21      N        0.54600    0.51660    0.84480    1.000
    N22      N        0.34930    0.89490    0.67160    1.000
    N23      N        0.07050    0.10350    0.83440    1.000
    N24      N        0.89520    0.48070    0.64450    1.000
    O1       O        0.78780    0.91810    0.28090    1.000
    O2       O        0.77440    0.07820    0.19940    1.000
    O3       O        0.93250    0.02180    0.28540    1.000
    O4       O        0.21270    0.44870    0.17450    1.000
    O5       O        0.37090    0.55010    0.33810    1.000
    O6       O        0.64150    0.97270    0.19970    1.000
    O7       O        0.28780    0.58190    0.21910    1.000
    O8       O        0.27440    0.42180    0.30060    1.000
    O9       O        0.43250    0.47820    0.21460    1.000
    O10      O        0.71270    0.05130    0.32550    1.000
    O11      O        0.87090    0.94990    0.16190    1.000
    O12      O        0.14150    0.52730    0.30030    1.000
    O13      O        0.21220    0.08190    0.71910    1.000
    O14      O        0.22560    0.92180    0.80060    1.000
    O15      O        0.06750    0.97820    0.71460    1.000
    O16      O        0.78730    0.55130    0.82550    1.000
    O17      O        0.62910    0.44990    0.66190    1.000
    O18      O        0.35850    0.02730    0.80030    1.000
    O19      O        0.71220    0.41810    0.78090    1.000
    O20      O        0.72560    0.57820    0.69940    1.000
    O21      O        0.56750    0.52180    0.78540    1.000
    O22      O        0.28730    0.94870    0.67450    1.000
    O23      O        0.12910    0.05010    0.83810    1.000
    O24      O        0.85850    0.47270    0.69970    1.000
    C121     C        0.50360    0.21880    0.07320    1.000
    S1       S        0.50490    0.24749    0.15812    1.000
    O25      O        0.60760    0.27700    0.17200    1.000
    O26      O        0.49940    0.19040    0.18130    1.000
    O27      O        0.42350    0.29540    0.17100    1.000
    F1       F        0.41380    0.18690    0.05620    1.000
    F2       F        0.51110    0.26820    0.04520    1.000
    F3       F        0.57560    0.17460    0.05210    1.000
    C122     C        0.49550    0.79640    0.11730    1.000
    S2       S        0.58470    0.73360    0.13307    1.000
    O28      O        0.67330    0.77220    0.16140    1.000
    O29      O        0.60350    0.69360    0.07050    1.000
    O30      O        0.52620    0.70120    0.17430    1.000
    F4       F        0.46630    0.83720    0.17110    1.000
    F5       F        0.40860    0.76850    0.08840    1.000
    F6       F        0.53830    0.83140    0.08040    1.000
    C123     C        0.32750    0.96530    0.37740    1.000
    S3       S        0.31320    0.94890    0.29559    1.000
    O31      O        0.30830    0.87520    0.28220    1.000
    O32      O        0.40350    0.97290    0.27540    1.000
    O33      O        0.21350    0.97740    0.28440    1.000
    F7       F        0.41510    0.93830    0.39600    1.000
    F8       F        0.32960    0.03480    0.40060    1.000
    F9       F        0.24800    0.94640    0.40920    1.000
    C124     C        0.00360    0.28120    0.42680    1.000
    S4       S        0.00490    0.25251    0.34188    1.000
    O34      O        0.10760    0.22300    0.32800    1.000
    O35      O        0.99940    0.30960    0.31870    1.000
    O36      O        0.92350    0.20460    0.32900    1.000
    F10      F        0.91380    0.31310    0.44380    1.000
    F11      F        0.01110    0.23180    0.45480    1.000
    F12      F        0.07560    0.32540    0.44790    1.000
    C125     C        0.99550    0.70360    0.38270    1.000
    S5       S        0.08470    0.76640    0.36693    1.000
    O37      O        0.17330    0.72780    0.33860    1.000
    O38      O        0.10350    0.80640    0.42950    1.000
    O39      O        0.02620    0.79880    0.32570    1.000
    F13      F        0.96630    0.66280    0.32890    1.000
    F14      F        0.90860    0.73150    0.41160    1.000
    F15      F        0.03830    0.66860    0.41960    1.000
    C126     C        0.82750    0.53470    0.12260    1.000
    S6       S        0.81320    0.55110    0.20441    1.000
    O40      O        0.80830    0.62480    0.21780    1.000
    O41      O        0.90350    0.52710    0.22460    1.000
    O42      O        0.71350    0.52260    0.21560    1.000
    F16      F        0.91510    0.56170    0.10400    1.000
    F17      F        0.82960    0.46520    0.09940    1.000
    F18      F        0.74800    0.55360    0.09080    1.000
    C127     C        0.49640    0.78120    0.92680    1.000
    S7       S        0.49510    0.75251    0.84188    1.000
    O43      O        0.39240    0.72300    0.82800    1.000
    O44      O        0.50060    0.80960    0.81870    1.000
    O45      O        0.57650    0.70460    0.82900    1.000
    F19      F        0.58620    0.81310    0.94380    1.000
    F20      F        0.48890    0.73180    0.95480    1.000
    F21      F        0.42440    0.82540    0.94790    1.000
    C128     C        0.50450    0.20360    0.88270    1.000
    S8       S        0.41530    0.26640    0.86693    1.000
    O46      O        0.32670    0.22780    0.83860    1.000
    O47      O        0.39650    0.30640    0.92950    1.000
    O48      O        0.47380    0.29880    0.82570    1.000
    F22      F        0.53370    0.16280    0.82890    1.000
    F23      F        0.59140    0.23150    0.91160    1.000
    F24      F        0.46170    0.16860    0.91960    1.000
    C129     C        0.67250    0.03470    0.62260    1.000
    S9       S        0.68680    0.05110    0.70441    1.000
    O49      O        0.69170    0.12480    0.71780    1.000
    O50      O        0.59650    0.02710    0.72460    1.000
    O51      O        0.78650    0.02260    0.71560    1.000
    F25      F        0.58490    0.06170    0.60400    1.000
    F26      F        0.67040    0.96520    0.59940    1.000
    F27      F        0.75200    0.05360    0.59080    1.000
    C130     C        0.99640    0.71880    0.57320    1.000
    S10      S        0.99510    0.74749    0.65812    1.000
    O52      O        0.89240    0.77700    0.67200    1.000
    O53      O        0.00060    0.69040    0.68130    1.000
    O54      O        0.07650    0.79540    0.67100    1.000
    F28      F        0.08620    0.68690    0.55620    1.000
    F29      F        0.98890    0.76820    0.54520    1.000
    F30      F        0.92440    0.67460    0.55210    1.000
    C131     C        0.00450    0.29640    0.61730    1.000
    S11      S        0.91530    0.23360    0.63307    1.000
    O55      O        0.82670    0.27220    0.66140    1.000
    O56      O        0.89650    0.19360    0.57050    1.000
    O57      O        0.97380    0.20120    0.67430    1.000
    F31      F        0.03370    0.33720    0.67110    1.000
    F32      F        0.09140    0.26850    0.58840    1.000
    F33      F        0.96170    0.33140    0.58040    1.000
    C132     C        0.17250    0.46530    0.87740    1.000
    S12      S        0.18680    0.44890    0.79559    1.000
    O58      O        0.19170    0.37520    0.78220    1.000
    O59      O        0.09650    0.47290    0.77540    1.000
    O60      O        0.28650    0.47740    0.78440    1.000
    F34      F        0.08490    0.43830    0.89600    1.000
    F35      F        0.17040    0.53480    0.90060    1.000
    F36      F        0.25200    0.44640    0.90920    1.000
