# CIF file generated by openbabel 3.1.0, see https://openbabel.org
data_I
_chemical_name_common 'image0'
_cell_length_a 13.0771
_cell_length_b 26.5999
_cell_length_c 13.1458
_cell_angle_alpha 90
_cell_angle_beta 116.363
_cell_angle_gamma 90
_space_group_name_H-M_alt 'P 1'
_space_group_name_Hall 'P 1'
loop_
    _symmetry_equiv_pos_as_xyz
    x,y,z
loop_
    _atom_site_label
    _atom_site_type_symbol
    _atom_site_fract_x
    _atom_site_fract_y
    _atom_site_fract_z
    _atom_site_occupancy
    Tb1      Tb       0.82028    0.00520    0.91942    1.000
    O1       O        0.88030    0.06680    0.06350    1.000
    O2       O        0.68940    0.05260    0.78060    1.000
    O3       O        0.06220    0.04620    0.12260    1.000
    O4       O        0.11010    0.45240    0.42730    1.000
    O5       O        0.92480    0.43510    0.37150    1.000
    O6       O        0.30600    0.43820    0.66790    1.000
    C1       C        0.98270    0.07650    0.11470    1.000
    C2       C        0.62150    0.08080    0.70360    1.000
    C3       C        0.01700    0.12780    0.16840    1.000
    C4       C        0.60310    0.13290    0.73630    1.000
    O7       O        0.56930    0.06830    0.60340    1.000
    C5       C        0.11960    0.14860    0.18140    1.000
    C6       C        0.94270    0.15500    0.19630    1.000
    C7       C        0.52100    0.16370    0.65580    1.000
    C8       C        0.66760    0.15060    0.84710    1.000
    Tb2      Tb       0.45240    0.00685    0.50360    1.000
    H1       H        0.16870    0.12980    0.16260    1.000
    C9       C        0.14910    0.19700    0.22230    1.000
    H2       H        0.87370    0.14110    0.18680    1.000
    C10      C        0.97270    0.20310    0.23860    1.000
    H3       H        0.47780    0.15200    0.58220    1.000
    C11      C        0.50380    0.21170    0.68560    1.000
    H4       H        0.72220    0.12980    0.90070    1.000
    C12      C        0.65150    0.19810    0.87780    1.000
    O8       O        0.31700    0.07410    0.50000    1.000
    O9       O        0.38700    0.03130    0.64700    1.000
    O10      O        0.42570    0.45530    0.84620    1.000
    H5       H        0.21790    0.21100    0.23150    1.000
    C13      C        0.07380    0.22460    0.24940    1.000
    C14      C        0.90820    0.24000    0.27830    1.000
    C15      C        0.56960    0.22930    0.79610    1.000
    C16      C        0.41820    0.25130    0.61240    1.000
    H6       H        0.69430    0.20950    0.95170    1.000
    N1       N        0.31400    0.06140    0.59200    1.000
    C17      C        0.07860    0.27720    0.28380    1.000
    C18      C        0.90710    0.22090    0.38900    1.000
    C19      C        0.78690    0.24940    0.18820    1.000
    C20      C        0.98240    0.28660    0.30240    1.000
    C21      C        0.53590    0.28060    0.80180    1.000
    C22      C        0.29630    0.23320    0.56970    1.000
    C23      C        0.44050    0.26630    0.51150    1.000
    C24      C        0.44580    0.29440    0.69810    1.000
    O11      O        0.26900    0.08710    0.63700    1.000
    C25      C        0.15620    0.31520    0.29990    1.000
    H7       H        0.87650    0.24600    0.41960    1.000
    H8       H        0.98610    0.21400    0.44150    1.000
    H9       H        0.86180    0.19110    0.37540    1.000
    H10      H        0.75280    0.27540    0.21290    1.000
    H11      H        0.74270    0.21930    0.17690    1.000
    H12      H        0.78700    0.25900    0.11870    1.000
    C26      C        0.96280    0.33400    0.33410    1.000
    C27      C        0.57690    0.31520    0.89310    1.000
    H13      H        0.28480    0.22200    0.63250    1.000
    H14      H        0.28160    0.20620    0.51760    1.000
    H15      H        0.24400    0.26010    0.53260    1.000
    H16      H        0.39340    0.29470    0.47450    1.000
    H17      H        0.42040    0.23900    0.45940    1.000
    H18      H        0.52080    0.27460    0.53750    1.000
    C28      C        0.39700    0.34120    0.68320    1.000
    H19      H        0.21980    0.30910    0.28740    1.000
    C29      C        0.13940    0.36240    0.33470    1.000
    H20      H        0.89780    0.34050    0.34390    1.000
    C30      C        0.04330    0.37180    0.35100    1.000
    H21      H        0.63620    0.30630    0.96270    1.000
    C31      C        0.52860    0.36160    0.87790    1.000
    H22      H        0.33720    0.35020    0.61400    1.000
    C32      C        0.43840    0.37520    0.77340    1.000
    H23      H        0.19250    0.38780    0.34700    1.000
    C33      C        0.02450    0.42370    0.38610    1.000
    H24      H        0.55570    0.38460    0.93740    1.000
    C34      C        0.38360    0.42630    0.75970    1.000
    Tb3      Tb       0.17972    0.50520    0.58058    1.000
    O12      O        0.11970    0.56680    0.43650    1.000
    O13      O        0.31060    0.55260    0.71940    1.000
    O14      O        0.93780    0.54620    0.37740    1.000
    O15      O        0.88990    0.95240    0.07270    1.000
    O16      O        0.07520    0.93510    0.12850    1.000
    O17      O        0.69400    0.93820    0.83210    1.000
    C35      C        0.01730    0.57650    0.38530    1.000
    C36      C        0.37850    0.58080    0.79640    1.000
    C37      C        0.98300    0.62780    0.33160    1.000
    C38      C        0.39690    0.63290    0.76370    1.000
    O18      O        0.43070    0.56830    0.89660    1.000
    C39      C        0.88040    0.64860    0.31860    1.000
    C40      C        0.05730    0.65500    0.30370    1.000
    C41      C        0.47900    0.66370    0.84420    1.000
    C42      C        0.33240    0.65060    0.65290    1.000
    Tb4      Tb       0.54760    0.50685    0.99640    1.000
    H25      H        0.83130    0.62980    0.33740    1.000
    C43      C        0.85090    0.69700    0.27770    1.000
    H26      H        0.12630    0.64110    0.31320    1.000
    C44      C        0.02730    0.70310    0.26140    1.000
    H27      H        0.52220    0.65200    0.91780    1.000
    C45      C        0.49620    0.71170    0.81440    1.000
    H28      H        0.27780    0.62980    0.59930    1.000
    C46      C        0.34850    0.69810    0.62220    1.000
    O19      O        0.68300    0.57410    0.00000    1.000
    O20      O        0.61300    0.53130    0.85300    1.000
    O21      O        0.57430    0.95530    0.65380    1.000
    H29      H        0.78210    0.71100    0.26850    1.000
    C47      C        0.92620    0.72460    0.25060    1.000
    C48      C        0.09180    0.74000    0.22170    1.000
    C49      C        0.43040    0.72930    0.70390    1.000
    C50      C        0.58180    0.75130    0.88760    1.000
    H30      H        0.30570    0.70950    0.54830    1.000
    N2       N        0.68600    0.56140    0.90800    1.000
    C51      C        0.92140    0.77720    0.21620    1.000
    C52      C        0.09290    0.72090    0.11100    1.000
    C53      C        0.21310    0.74940    0.31180    1.000
    C54      C        0.01760    0.78660    0.19760    1.000
    C55      C        0.46410    0.78060    0.69820    1.000
    C56      C        0.70370    0.73320    0.93030    1.000
    C57      C        0.55950    0.76630    0.98850    1.000
    C58      C        0.55420    0.79440    0.80190    1.000
    O22      O        0.73100    0.58710    0.86300    1.000
    C59      C        0.84380    0.81520    0.20010    1.000
    H31      H        0.12350    0.74600    0.08040    1.000
    H32      H        0.01390    0.71400    0.05850    1.000
    H33      H        0.13820    0.69110    0.12460    1.000
    H34      H        0.24720    0.77540    0.28710    1.000
    H35      H        0.25730    0.71930    0.32310    1.000
    H36      H        0.21300    0.75900    0.38130    1.000
    C60      C        0.03720    0.83400    0.16590    1.000
    C61      C        0.42310    0.81520    0.60690    1.000
    H37      H        0.71520    0.72200    0.86750    1.000
    H38      H        0.71840    0.70620    0.98240    1.000
    H39      H        0.75600    0.76010    0.96740    1.000
    H40      H        0.60660    0.79470    0.02550    1.000
    H41      H        0.57960    0.73900    0.04060    1.000
    H42      H        0.47920    0.77460    0.96250    1.000
    C62      C        0.60300    0.84120    0.81680    1.000
    H43      H        0.78020    0.80910    0.21260    1.000
    C63      C        0.86060    0.86240    0.16530    1.000
    H44      H        0.10220    0.84050    0.15610    1.000
    C64      C        0.95670    0.87180    0.14900    1.000
    H45      H        0.36380    0.80630    0.53730    1.000
    C65      C        0.47140    0.86160    0.62210    1.000
    H46      H        0.66280    0.85020    0.88600    1.000
    C66      C        0.56160    0.87520    0.72660    1.000
    H47      H        0.80750    0.88780    0.15300    1.000
    C67      C        0.97550    0.92370    0.11390    1.000
    H48      H        0.44430    0.88460    0.56260    1.000
    C68      C        0.61640    0.92630    0.74030    1.000
    Tb5      Tb       0.17972    0.99480    0.08058    1.000
    O23      O        0.11970    0.93320    0.93650    1.000
    O24      O        0.31060    0.94740    0.21940    1.000
    O25      O        0.93780    0.95380    0.87740    1.000
    O26      O        0.88990    0.54760    0.57270    1.000
    O27      O        0.07520    0.56490    0.62850    1.000
    O28      O        0.69400    0.56180    0.33210    1.000
    C69      C        0.01730    0.92350    0.88530    1.000
    C70      C        0.37850    0.91920    0.29640    1.000
    C71      C        0.98300    0.87220    0.83160    1.000
    C72      C        0.39690    0.86710    0.26370    1.000
    O29      O        0.43070    0.93170    0.39660    1.000
    C73      C        0.88040    0.85140    0.81860    1.000
    C74      C        0.05730    0.84500    0.80370    1.000
    C75      C        0.47900    0.83630    0.34420    1.000
    C76      C        0.33240    0.84940    0.15290    1.000
    Tb6      Tb       0.54760    0.99315    0.49640    1.000
    H49      H        0.83130    0.87020    0.83740    1.000
    C77      C        0.85090    0.80300    0.77770    1.000
    H50      H        0.12630    0.85890    0.81320    1.000
    C78      C        0.02730    0.79690    0.76140    1.000
    H51      H        0.52220    0.84800    0.41780    1.000
    C79      C        0.49620    0.78830    0.31440    1.000
    H52      H        0.27780    0.87020    0.09930    1.000
    C80      C        0.34850    0.80190    0.12220    1.000
    O30      O        0.68300    0.92590    0.50000    1.000
    O31      O        0.61300    0.96870    0.35300    1.000
    O32      O        0.57430    0.54470    0.15380    1.000
    H53      H        0.78210    0.78900    0.76850    1.000
    C81      C        0.92620    0.77540    0.75060    1.000
    C82      C        0.09180    0.76000    0.72170    1.000
    C83      C        0.43040    0.77070    0.20390    1.000
    C84      C        0.58180    0.74870    0.38760    1.000
    H54      H        0.30570    0.79050    0.04830    1.000
    N3       N        0.68600    0.93860    0.40800    1.000
    C85      C        0.92140    0.72280    0.71620    1.000
    C86      C        0.09290    0.77910    0.61100    1.000
    C87      C        0.21310    0.75060    0.81180    1.000
    C88      C        0.01760    0.71340    0.69760    1.000
    C89      C        0.46410    0.71940    0.19820    1.000
    C90      C        0.70370    0.76680    0.43030    1.000
    C91      C        0.55950    0.73370    0.48850    1.000
    C92      C        0.55420    0.70560    0.30190    1.000
    O33      O        0.73100    0.91290    0.36300    1.000
    C93      C        0.84380    0.68480    0.70010    1.000
    H55      H        0.12350    0.75400    0.58040    1.000
    H56      H        0.01390    0.78600    0.55850    1.000
    H57      H        0.13820    0.80890    0.62460    1.000
    H58      H        0.24720    0.72460    0.78710    1.000
    H59      H        0.25730    0.78070    0.82310    1.000
    H60      H        0.21300    0.74100    0.88130    1.000
    C94      C        0.03720    0.66600    0.66590    1.000
    C95      C        0.42310    0.68480    0.10690    1.000
    H61      H        0.71520    0.77800    0.36750    1.000
    H62      H        0.71840    0.79380    0.48240    1.000
    H63      H        0.75600    0.73990    0.46740    1.000
    H64      H        0.60660    0.70530    0.52550    1.000
    H65      H        0.57960    0.76100    0.54060    1.000
    H66      H        0.47920    0.72540    0.46250    1.000
    C96      C        0.60300    0.65880    0.31680    1.000
    H67      H        0.78020    0.69090    0.71260    1.000
    C97      C        0.86060    0.63760    0.66530    1.000
    H68      H        0.10220    0.65950    0.65610    1.000
    C98      C        0.95670    0.62820    0.64900    1.000
    H69      H        0.36380    0.69370    0.03730    1.000
    C99      C        0.47140    0.63840    0.12210    1.000
    H70      H        0.66280    0.64980    0.38600    1.000
    C100     C        0.56160    0.62480    0.22660    1.000
    H71      H        0.80750    0.61220    0.65300    1.000
    C101     C        0.97550    0.57630    0.61390    1.000
    H72      H        0.44430    0.61540    0.06260    1.000
    C102     C        0.61640    0.57370    0.24030    1.000
    Tb7      Tb       0.82028    0.49480    0.41942    1.000
    O34      O        0.88030    0.43320    0.56350    1.000
    O35      O        0.68940    0.44740    0.28060    1.000
    O36      O        0.06220    0.45380    0.62260    1.000
    O37      O        0.11010    0.04760    0.92730    1.000
    O38      O        0.92480    0.06490    0.87150    1.000
    O39      O        0.30600    0.06180    0.16790    1.000
    C103     C        0.98270    0.42350    0.61470    1.000
    C104     C        0.62150    0.41920    0.20360    1.000
    C105     C        0.01700    0.37220    0.66840    1.000
    C106     C        0.60310    0.36710    0.23630    1.000
    O40      O        0.56930    0.43170    0.10340    1.000
    C107     C        0.11960    0.35140    0.68140    1.000
    C108     C        0.94270    0.34500    0.69630    1.000
    C109     C        0.52100    0.33630    0.15580    1.000
    C110     C        0.66760    0.34940    0.34710    1.000
    Tb8      Tb       0.45240    0.49315    0.00360    1.000
    H73      H        0.16870    0.37020    0.66260    1.000
    C111     C        0.14910    0.30300    0.72230    1.000
    H74      H        0.87370    0.35890    0.68680    1.000
    C112     C        0.97270    0.29690    0.73860    1.000
    H75      H        0.47780    0.34800    0.08220    1.000
    C113     C        0.50380    0.28830    0.18560    1.000
    H76      H        0.72220    0.37020    0.40070    1.000
    C114     C        0.65150    0.30190    0.37780    1.000
    O41      O        0.31700    0.42590    0.00000    1.000
    O42      O        0.38700    0.46870    0.14700    1.000
    O43      O        0.42570    0.04470    0.34620    1.000
    H77      H        0.21790    0.28900    0.73150    1.000
    C115     C        0.07380    0.27540    0.74940    1.000
    C116     C        0.90820    0.26000    0.77830    1.000
    C117     C        0.56960    0.27070    0.29610    1.000
    C118     C        0.41820    0.24870    0.11240    1.000
    H78      H        0.69430    0.29050    0.45170    1.000
    N4       N        0.31400    0.43860    0.09200    1.000
    C119     C        0.07860    0.22280    0.78380    1.000
    C120     C        0.90710    0.27910    0.88900    1.000
    C121     C        0.78690    0.25060    0.68820    1.000
    C122     C        0.98240    0.21340    0.80240    1.000
    C123     C        0.53590    0.21940    0.30180    1.000
    C124     C        0.29630    0.26680    0.06970    1.000
    C125     C        0.44050    0.23370    0.01150    1.000
    C126     C        0.44580    0.20560    0.19810    1.000
    O44      O        0.26900    0.41290    0.13700    1.000
    C127     C        0.15620    0.18480    0.79990    1.000
    H79      H        0.87650    0.25400    0.91960    1.000
    H80      H        0.98610    0.28600    0.94150    1.000
    H81      H        0.86180    0.30890    0.87540    1.000
    H82      H        0.75280    0.22460    0.71290    1.000
    H83      H        0.74270    0.28070    0.67690    1.000
    H84      H        0.78700    0.24100    0.61870    1.000
    C128     C        0.96280    0.16600    0.83410    1.000
    C129     C        0.57690    0.18480    0.39310    1.000
    H85      H        0.28480    0.27800    0.13250    1.000
    H86      H        0.28160    0.29380    0.01760    1.000
    H87      H        0.24400    0.23990    0.03260    1.000
    H88      H        0.39340    0.20530    0.97450    1.000
    H89      H        0.42040    0.26100    0.95940    1.000
    H90      H        0.52080    0.22540    0.03750    1.000
    C130     C        0.39700    0.15880    0.18320    1.000
    H91      H        0.21980    0.19090    0.78740    1.000
    C131     C        0.13940    0.13760    0.83470    1.000
    H92      H        0.89780    0.15950    0.84390    1.000
    C132     C        0.04330    0.12820    0.85100    1.000
    H93      H        0.63620    0.19370    0.46270    1.000
    C133     C        0.52860    0.13840    0.37790    1.000
    H94      H        0.33720    0.14980    0.11400    1.000
    C134     C        0.43840    0.12480    0.27340    1.000
    H95      H        0.19250    0.11220    0.84700    1.000
    C135     C        0.02450    0.07630    0.88610    1.000
    H96      H        0.55570    0.11540    0.43740    1.000
    C136     C        0.38360    0.07370    0.25970    1.000
