# CIF file generated by openbabel 3.1.0, see https://openbabel.org
data_I
_chemical_name_common 'image0'
_cell_length_a 43.7247
_cell_length_b 12.9362
_cell_length_c 8.4965
_cell_angle_alpha 90
_cell_angle_beta 94.3334
_cell_angle_gamma 90
_space_group_name_H-M_alt 'P 1'
_space_group_name_Hall 'P 1'
loop_
    _symmetry_equiv_pos_as_xyz
    x,y,z
loop_
    _atom_site_label
    _atom_site_type_symbol
    _atom_site_fract_x
    _atom_site_fract_y
    _atom_site_fract_z
    _atom_site_occupancy
    O1       O        0.44640    0.58850    0.79470    1.000
    O2       O        0.02794    0.95660    0.50240    1.000
    O3       O        0.05478    0.94390    0.72880    1.000
    O4       O        0.46954    0.52010    0.00540    1.000
    O5       O        0.25330    0.11980    0.35680    1.000
    O6       O        0.24718    0.34400    0.21550    1.000
    O7       O        0.19737    0.38840    0.34140    1.000
    O8       O        0.30461    0.07510    0.24460    1.000
    C1       C        0.22501    0.14740    0.42140    1.000
    H1       H        0.20770    0.12690    0.34780    1.000
    H2       H        0.22440    0.22230    0.43810    1.000
    H3       H        0.22350    0.11180    0.52240    1.000
    C2       C        0.16967    0.40930    0.41590    1.000
    H4       H        0.15620    0.45290    0.34660    1.000
    H5       H        0.17470    0.44520    0.51610    1.000
    H6       H        0.15930    0.34400    0.43590    1.000
    C3       C        0.27425    0.31670    0.14160    1.000
    H7       H        0.27350    0.34700    0.03570    1.000
    H8       H        0.27560    0.24130    0.13360    1.000
    H9       H        0.29230    0.34300    0.20470    1.000
    C4       C        0.13490    0.84950    0.50520    1.000
    C5       C        0.05364    0.93630    0.58230    1.000
    C6       C        0.31476    0.72090    0.00350    1.000
    H10      H        0.30040    0.76390    0.94490    1.000
    C7       C        0.18609    0.77980    0.54870    1.000
    H11      H        0.20190    0.75310    0.62030    1.000
    C8       C        0.10659    0.88100    0.57230    1.000
    H12      H        0.10750    0.88620    0.68410    1.000
    C9       C        0.15881    0.81130    0.60460    1.000
    H13      H        0.15630    0.80660    0.71450    1.000
    C10      C        0.34262    0.69770    0.94270    1.000
    H14      H        0.34700    0.72520    0.84310    1.000
    C11      C        0.39346    0.61590    0.95500    1.000
    H15      H        0.39500    0.64090    0.85080    1.000
    C12      C        0.33146    0.05620    0.16570    1.000
    H16      H        0.32580    0.02440    0.06280    1.000
    H17      H        0.34500    0.00940    0.22920    1.000
    H18      H        0.34210    0.12160    0.15030    1.000
    C13      C        0.07991    0.90320    0.49760    1.000
    H19      H        0.07760    0.89750    0.38580    1.000
    C14      C        0.23657    0.94120    0.34910    1.000
    H20      H        0.21750    0.95870    0.38880    1.000
    C15      C        0.41758    0.56820    0.02030    1.000
    H21      H        0.41720    0.53970    0.12310    1.000
    C16      C        0.19078    0.78630    0.39220    1.000
    C17      C        0.28599    0.99180    0.26390    1.000
    C18      C        0.25639    0.62890    0.23640    1.000
    C19      C        0.26242    0.52300    0.20280    1.000
    H22      H        0.28060    0.50530    0.15450    1.000
    C20      C        0.30759    0.68190    0.14880    1.000
    C21      C        0.36414    0.63540    0.02450    1.000
    C22      C        0.29276    0.89250    0.23290    1.000
    H23      H        0.31240    0.87640    0.19810    1.000
    C23      C        0.13897    0.85210    0.34490    1.000
    H24      H        0.12270    0.87470    0.27240    1.000
    C24      C        0.32938    0.61710    0.22990    1.000
    H25      H        0.32500    0.58830    0.32860    1.000
    C25      C        0.44591    0.55880    0.93160    1.000
    C26      C        0.27134    0.81110    0.25090    1.000
    C27      C        0.21449    0.47210    0.30980    1.000
    C28      C        0.24259    0.83590    0.31430    1.000
    C29      C        0.25711    0.01770    0.32770    1.000
    C30      C        0.35687    0.59460    0.16910    1.000
    H26      H        0.37110    0.55070    0.22630    1.000
    C31      C        0.20714    0.57190    0.33210    1.000
    H27      H        0.18780    0.58800    0.37020    1.000
    C32      C        0.22096    0.75810    0.33220    1.000
    C33      C        0.22760    0.65460    0.29980    1.000
    C34      C        0.24264    0.44700    0.23840    1.000
    C35      C        0.16654    0.82180    0.29050    1.000
    H28      H        0.16910    0.82530    0.18060    1.000
    C36      C        0.27804    0.70790    0.21420    1.000
    H29      H        0.48920    0.31460    0.83140    1.000
    O9       O        0.52650    0.36760    0.69000    1.000
    H30      H        0.54550    0.34440    0.73850    1.000
    H31      H        0.51880    0.31780    0.61520    1.000
    O10      O        0.55360    0.58850    0.70530    1.000
    O11      O        0.97206    0.95660    0.99760    1.000
    O12      O        0.94522    0.94390    0.77120    1.000
    O13      O        0.53046    0.52010    0.49460    1.000
    O14      O        0.74670    0.11980    0.14320    1.000
    O15      O        0.75282    0.34400    0.28450    1.000
    O16      O        0.80263    0.38840    0.15860    1.000
    O17      O        0.69539    0.07510    0.25540    1.000
    C37      C        0.77499    0.14740    0.07860    1.000
    H32      H        0.79230    0.12690    0.15220    1.000
    H33      H        0.77560    0.22230    0.06190    1.000
    H34      H        0.77650    0.11180    0.97760    1.000
    C38      C        0.83033    0.40930    0.08410    1.000
    H35      H        0.84380    0.45290    0.15340    1.000
    H36      H        0.82530    0.44520    0.98390    1.000
    H37      H        0.84070    0.34400    0.06410    1.000
    C39      C        0.72575    0.31670    0.35840    1.000
    H38      H        0.72650    0.34700    0.46430    1.000
    H39      H        0.72440    0.24130    0.36640    1.000
    H40      H        0.70770    0.34300    0.29530    1.000
    C40      C        0.86510    0.84950    0.99480    1.000
    C41      C        0.94636    0.93630    0.91770    1.000
    C42      C        0.68524    0.72090    0.49650    1.000
    H41      H        0.69960    0.76390    0.55510    1.000
    C43      C        0.81391    0.77980    0.95130    1.000
    H42      H        0.79810    0.75310    0.87970    1.000
    C44      C        0.89341    0.88100    0.92770    1.000
    H43      H        0.89250    0.88620    0.81590    1.000
    C45      C        0.84119    0.81130    0.89540    1.000
    H44      H        0.84370    0.80660    0.78550    1.000
    C46      C        0.65738    0.69770    0.55730    1.000
    H45      H        0.65300    0.72520    0.65690    1.000
    C47      C        0.60654    0.61590    0.54500    1.000
    H46      H        0.60500    0.64090    0.64920    1.000
    C48      C        0.66854    0.05620    0.33430    1.000
    H47      H        0.67420    0.02440    0.43720    1.000
    H48      H        0.65500    0.00940    0.27080    1.000
    H49      H        0.65790    0.12160    0.34970    1.000
    C49      C        0.92009    0.90320    0.00240    1.000
    H50      H        0.92240    0.89750    0.11420    1.000
    C50      C        0.76343    0.94120    0.15090    1.000
    H51      H        0.78250    0.95870    0.11120    1.000
    C51      C        0.58242    0.56820    0.47970    1.000
    H52      H        0.58280    0.53970    0.37690    1.000
    C52      C        0.80922    0.78630    0.10780    1.000
    C53      C        0.71401    0.99180    0.23610    1.000
    C54      C        0.74361    0.62890    0.26360    1.000
    C55      C        0.73758    0.52300    0.29720    1.000
    H53      H        0.71940    0.50530    0.34550    1.000
    C56      C        0.69241    0.68190    0.35120    1.000
    C57      C        0.63586    0.63540    0.47550    1.000
    C58      C        0.70724    0.89250    0.26710    1.000
    H54      H        0.68760    0.87640    0.30190    1.000
    C59      C        0.86103    0.85210    0.15510    1.000
    H55      H        0.87730    0.87470    0.22760    1.000
    C60      C        0.67062    0.61710    0.27010    1.000
    H56      H        0.67500    0.58830    0.17140    1.000
    C61      C        0.55409    0.55880    0.56840    1.000
    C62      C        0.72866    0.81110    0.24910    1.000
    C63      C        0.78551    0.47210    0.19020    1.000
    C64      C        0.75741    0.83590    0.18570    1.000
    C65      C        0.74289    0.01770    0.17230    1.000
    C66      C        0.64313    0.59460    0.33090    1.000
    H57      H        0.62890    0.55070    0.27370    1.000
    C67      C        0.79286    0.57190    0.16790    1.000
    H58      H        0.81220    0.58800    0.12980    1.000
    C68      C        0.77904    0.75810    0.16780    1.000
    C69      C        0.77240    0.65460    0.20020    1.000
    C70      C        0.75736    0.44700    0.26160    1.000
    C71      C        0.83346    0.82180    0.20950    1.000
    H59      H        0.83090    0.82530    0.31940    1.000
    C72      C        0.72196    0.70790    0.28580    1.000
    H60      H        0.51080    0.31460    0.66860    1.000
    O18      O        0.47350    0.36760    0.81000    1.000
    H61      H        0.45450    0.34440    0.76150    1.000
    H62      H        0.48120    0.31780    0.88480    1.000
    O19      O        0.55360    0.41150    0.20530    1.000
    O20      O        0.97206    0.04340    0.49760    1.000
    O21      O        0.94522    0.05610    0.27120    1.000
    O22      O        0.53046    0.47990    0.99460    1.000
    O23      O        0.74670    0.88020    0.64320    1.000
    O24      O        0.75282    0.65600    0.78450    1.000
    O25      O        0.80263    0.61160    0.65860    1.000
    O26      O        0.69539    0.92490    0.75540    1.000
    C73      C        0.77499    0.85260    0.57860    1.000
    H63      H        0.79230    0.87310    0.65220    1.000
    H64      H        0.77560    0.77770    0.56190    1.000
    H65      H        0.77650    0.88820    0.47760    1.000
    C74      C        0.83033    0.59070    0.58410    1.000
    H66      H        0.84380    0.54710    0.65340    1.000
    H67      H        0.82530    0.55480    0.48390    1.000
    H68      H        0.84070    0.65600    0.56410    1.000
    C75      C        0.72575    0.68330    0.85840    1.000
    H69      H        0.72650    0.65300    0.96430    1.000
    H70      H        0.72440    0.75870    0.86640    1.000
    H71      H        0.70770    0.65700    0.79530    1.000
    C76      C        0.86510    0.15050    0.49480    1.000
    C77      C        0.94636    0.06370    0.41770    1.000
    C78      C        0.68524    0.27910    0.99650    1.000
    H72      H        0.69960    0.23610    0.05510    1.000
    C79      C        0.81391    0.22020    0.45130    1.000
    H73      H        0.79810    0.24690    0.37970    1.000
    C80      C        0.89341    0.11900    0.42770    1.000
    H74      H        0.89250    0.11380    0.31590    1.000
    C81      C        0.84119    0.18870    0.39540    1.000
    H75      H        0.84370    0.19340    0.28550    1.000
    C82      C        0.65738    0.30230    0.05730    1.000
    H76      H        0.65300    0.27480    0.15690    1.000
    C83      C        0.60654    0.38410    0.04500    1.000
    H77      H        0.60500    0.35910    0.14920    1.000
    C84      C        0.66854    0.94380    0.83430    1.000
    H78      H        0.67420    0.97560    0.93720    1.000
    H79      H        0.65500    0.99060    0.77080    1.000
    H80      H        0.65790    0.87840    0.84970    1.000
    C85      C        0.92009    0.09680    0.50240    1.000
    H81      H        0.92240    0.10250    0.61420    1.000
    C86      C        0.76343    0.05880    0.65090    1.000
    H82      H        0.78250    0.04130    0.61120    1.000
    C87      C        0.58242    0.43180    0.97970    1.000
    H83      H        0.58280    0.46030    0.87690    1.000
    C88      C        0.80922    0.21370    0.60780    1.000
    C89      C        0.71401    0.00820    0.73610    1.000
    C90      C        0.74361    0.37110    0.76360    1.000
    C91      C        0.73758    0.47700    0.79720    1.000
    H84      H        0.71940    0.49470    0.84550    1.000
    C92      C        0.69241    0.31810    0.85120    1.000
    C93      C        0.63586    0.36460    0.97550    1.000
    C94      C        0.70724    0.10750    0.76710    1.000
    H85      H        0.68760    0.12360    0.80190    1.000
    C95      C        0.86103    0.14790    0.65510    1.000
    H86      H        0.87730    0.12530    0.72760    1.000
    C96      C        0.67062    0.38290    0.77010    1.000
    H87      H        0.67500    0.41170    0.67140    1.000
    C97      C        0.55409    0.44120    0.06840    1.000
    C98      C        0.72866    0.18890    0.74910    1.000
    C99      C        0.78551    0.52790    0.69020    1.000
    C100     C        0.75741    0.16410    0.68570    1.000
    C101     C        0.74289    0.98230    0.67230    1.000
    C102     C        0.64313    0.40540    0.83090    1.000
    H88      H        0.62890    0.44930    0.77370    1.000
    C103     C        0.79286    0.42810    0.66790    1.000
    H89      H        0.81220    0.41200    0.62980    1.000
    C104     C        0.77904    0.24190    0.66780    1.000
    C105     C        0.77240    0.34540    0.70020    1.000
    C106     C        0.75736    0.55300    0.76160    1.000
    C107     C        0.83346    0.17820    0.70950    1.000
    H90      H        0.83090    0.17470    0.81940    1.000
    C108     C        0.72196    0.29210    0.78580    1.000
    H91      H        0.51080    0.68540    0.16860    1.000
    O27      O        0.47350    0.63240    0.31000    1.000
    H92      H        0.45450    0.65560    0.26150    1.000
    H93      H        0.48120    0.68220    0.38480    1.000
    O28      O        0.44640    0.41150    0.29470    1.000
    O29      O        0.02794    0.04340    0.00240    1.000
    O30      O        0.05478    0.05610    0.22880    1.000
    O31      O        0.46954    0.47990    0.50540    1.000
    O32      O        0.25330    0.88020    0.85680    1.000
    O33      O        0.24718    0.65600    0.71550    1.000
    O34      O        0.19737    0.61160    0.84140    1.000
    O35      O        0.30461    0.92490    0.74460    1.000
    C109     C        0.22501    0.85260    0.92140    1.000
    H94      H        0.20770    0.87310    0.84780    1.000
    H95      H        0.22440    0.77770    0.93810    1.000
    H96      H        0.22350    0.88820    0.02240    1.000
    C110     C        0.16967    0.59070    0.91590    1.000
    H97      H        0.15620    0.54710    0.84660    1.000
    H98      H        0.17470    0.55480    0.01610    1.000
    H99      H        0.15930    0.65600    0.93590    1.000
    C111     C        0.27425    0.68330    0.64160    1.000
    H100     H        0.27350    0.65300    0.53570    1.000
    H101     H        0.27560    0.75870    0.63360    1.000
    H102     H        0.29230    0.65700    0.70470    1.000
    C112     C        0.13490    0.15050    0.00520    1.000
    C113     C        0.05364    0.06370    0.08230    1.000
    C114     C        0.31476    0.27910    0.50350    1.000
    H103     H        0.30040    0.23610    0.44490    1.000
    C115     C        0.18609    0.22020    0.04870    1.000
    H104     H        0.20190    0.24690    0.12030    1.000
    C116     C        0.10659    0.11900    0.07230    1.000
    H105     H        0.10750    0.11380    0.18410    1.000
    C117     C        0.15881    0.18870    0.10460    1.000
    H106     H        0.15630    0.19340    0.21450    1.000
    C118     C        0.34262    0.30230    0.44270    1.000
    H107     H        0.34700    0.27480    0.34310    1.000
    C119     C        0.39346    0.38410    0.45500    1.000
    H108     H        0.39500    0.35910    0.35080    1.000
    C120     C        0.33146    0.94380    0.66570    1.000
    H109     H        0.32580    0.97560    0.56280    1.000
    H110     H        0.34500    0.99060    0.72920    1.000
    H111     H        0.34210    0.87840    0.65030    1.000
    C121     C        0.07991    0.09680    0.99760    1.000
    H112     H        0.07760    0.10250    0.88580    1.000
    C122     C        0.23657    0.05880    0.84910    1.000
    H113     H        0.21750    0.04130    0.88880    1.000
    C123     C        0.41758    0.43180    0.52030    1.000
    H114     H        0.41720    0.46030    0.62310    1.000
    C124     C        0.19078    0.21370    0.89220    1.000
    C125     C        0.28599    0.00820    0.76390    1.000
    C126     C        0.25639    0.37110    0.73640    1.000
    C127     C        0.26242    0.47700    0.70280    1.000
    H115     H        0.28060    0.49470    0.65450    1.000
    C128     C        0.30759    0.31810    0.64880    1.000
    C129     C        0.36414    0.36460    0.52450    1.000
    C130     C        0.29276    0.10750    0.73290    1.000
    H116     H        0.31240    0.12360    0.69810    1.000
    C131     C        0.13897    0.14790    0.84490    1.000
    H117     H        0.12270    0.12530    0.77240    1.000
    C132     C        0.32938    0.38290    0.72990    1.000
    H118     H        0.32500    0.41170    0.82860    1.000
    C133     C        0.44591    0.44120    0.43160    1.000
    C134     C        0.27134    0.18890    0.75090    1.000
    C135     C        0.21449    0.52790    0.80980    1.000
    C136     C        0.24259    0.16410    0.81430    1.000
    C137     C        0.25711    0.98230    0.82770    1.000
    C138     C        0.35687    0.40540    0.66910    1.000
    H119     H        0.37110    0.44930    0.72630    1.000
    C139     C        0.20714    0.42810    0.83210    1.000
    H120     H        0.18780    0.41200    0.87020    1.000
    C140     C        0.22096    0.24190    0.83220    1.000
    C141     C        0.22760    0.34540    0.79980    1.000
    C142     C        0.24264    0.55300    0.73840    1.000
    C143     C        0.16654    0.17820    0.79050    1.000
    H121     H        0.16910    0.17470    0.68060    1.000
    C144     C        0.27804    0.29210    0.71420    1.000
    H122     H        0.48920    0.68540    0.33140    1.000
    O36      O        0.52650    0.63240    0.19000    1.000
    H123     H        0.54550    0.65560    0.23850    1.000
    H124     H        0.51880    0.68220    0.11520    1.000
    Pr1      Pr       0.00000    0.00530    0.75000    1.000
    Pr2      Pr       0.00000    0.99470    0.25000    1.000
    Pr3      Pr       0.50000    0.53222    0.75000    1.000
    O37      O        0.50000    0.36830    0.75000    1.000
    Pr4      Pr       0.50000    0.46778    0.25000    1.000
    O38      O        0.50000    0.63170    0.25000    1.000
