# CIF file generated by openbabel 3.1.0, see https://openbabel.org
data_I
_chemical_name_common 'ZIYPUU_clean'
_cell_length_a 9.5996
_cell_length_b 9.7638
_cell_length_c 9.866
_cell_angle_alpha 88.15
_cell_angle_beta 77.431
_cell_angle_gamma 64.293
_space_group_name_H-M_alt 'P 1'
_space_group_name_Hall 'P 1'
loop_
    _symmetry_equiv_pos_as_xyz
    x,y,z
loop_
    _atom_site_label
    _atom_site_type_symbol
    _atom_site_fract_x
    _atom_site_fract_y
    _atom_site_fract_z
    _atom_site_occupancy
    Cd1      Cd       0.95194    0.22667    0.02831    1.000
    Cd2      Cd       0.04806    0.77333    0.97169    1.000
    H1       H        0.41560    0.13120    0.43450    1.000
    H2       H        0.76670    0.67210    0.11440    1.000
    H3       H        0.20640    0.41670    0.30610    1.000
    H4       H        0.62950    0.00550    0.54090    1.000
    H5       H        0.71680    0.90800    0.81330    1.000
    H6       H        0.58440    0.86880    0.56550    1.000
    H7       H        0.37050    0.99450    0.45910    1.000
    H8       H        0.79360    0.58330    0.69390    1.000
    H9       H        0.47980    0.16830    0.17040    1.000
    H10      H        0.77330    0.47100    0.50140    1.000
    H11      H        0.22670    0.52900    0.49860    1.000
    H12      H        0.52020    0.83170    0.82960    1.000
    H13      H        0.84530    0.95680    0.31080    1.000
    H14      H        0.15470    0.04320    0.68920    1.000
    H15      H        0.23330    0.32790    0.88560    1.000
    H16      H        0.28320    0.09200    0.18670    1.000
    C1       C        0.37030    0.05500    0.11150    1.000
    C2       C        0.19750    0.10570    0.71300    1.000
    C3       C        0.62970    0.94500    0.88850    1.000
    C4       C        0.41610    0.05200    0.49650    1.000
    C5       C        0.12250    0.45070    0.38400    1.000
    C6       C        0.01230    0.56570    0.61790    1.000
    C7       C        0.86460    0.48290    0.50010    1.000
    C8       C        0.98770    0.43430    0.38210    1.000
    C9       C        0.80250    0.89430    0.28700    1.000
    C10      C        0.24220    0.25900    0.81750    1.000
    C11      C        0.02530    0.63620    0.74390    1.000
    C12      C        0.48780    0.10040    0.10180    1.000
    C13      C        0.87750    0.54930    0.61600    1.000
    C14      C        0.97470    0.36380    0.25610    1.000
    C15      C        0.62070    0.04570    0.98950    1.000
    C16      C        0.24770    0.90950    0.01570    1.000
    C17      C        0.13540    0.51710    0.49990    1.000
    C18      C        0.51220    0.89960    0.89820    1.000
    C19      C        0.75780    0.74100    0.18250    1.000
    C20      C        0.58390    0.94800    0.50350    1.000
    C21      C        0.75230    0.09050    0.98430    1.000
    C22      C        0.37930    0.95430    0.01050    1.000
    N1       N        0.64840    0.78030    0.29940    1.000
    N2       N        0.85470    0.80790    0.16950    1.000
    N3       N        0.35160    0.21970    0.70060    1.000
    N4       N        0.32000    0.12150    0.63410    1.000
    N5       N        0.68000    0.87850    0.36590    1.000
    N6       N        0.14530    0.19210    0.83050    1.000
    O1       O        0.05760    0.36450    0.13950    1.000
    O2       O        0.12060    0.69540    0.73090    1.000
    O3       O        0.88540    0.01590    0.90330    1.000
    O4       O        0.94240    0.63550    0.86050    1.000
    O5       O        0.72770    0.19920    0.06430    1.000
    O6       O        0.11460    0.98410    0.09670    1.000
    O7       O        0.87940    0.30460    0.26910    1.000
    O8       O        0.27230    0.80080    0.93570    1.000
