# CIF file generated by openbabel 3.1.0, see https://openbabel.org
data_I
_chemical_name_common 'image0'
_cell_length_a 16.0402
_cell_length_b 16.0402
_cell_length_c 17.7976
_cell_angle_alpha 90
_cell_angle_beta 90
_cell_angle_gamma 120
_space_group_name_H-M_alt 'P 1'
_space_group_name_Hall 'P 1'
loop_
    _symmetry_equiv_pos_as_xyz
    x,y,z
loop_
    _atom_site_label
    _atom_site_type_symbol
    _atom_site_fract_x
    _atom_site_fract_y
    _atom_site_fract_z
    _atom_site_occupancy
    C1       C        0.27110    0.62250    0.19160    1.000
    H1       H        0.22110    0.58440    0.15720    1.000
    C2       C        0.34280    0.59470    0.20860    1.000
    C3       C        0.34340    0.52060    0.16630    1.000
    C4       C        0.40350    0.48710    0.18800    1.000
    H2       H        0.40520    0.43750    0.16010    1.000
    N1       N        0.46000    0.52460    0.24901    1.000
    H3       H        0.49600    0.50010    0.26240    1.000
    C5       C        0.46510    0.59640    0.29060    1.000
    C6       C        0.40580    0.63400    0.27000    1.000
    C7       C        0.52770    0.62930    0.35860    1.000
    H4       H        0.56110    0.59240    0.36350    1.000
    H5       H        0.48810    0.61920    0.40330    1.000
    H6       H        0.57520    0.69790    0.35370    1.000
    C8       C        0.28340    0.48060    0.09650    1.000
    H7       H        0.29650    0.43230    0.07320    1.000
    H8       H        0.21420    0.44840    0.10970    1.000
    C9       C        0.19760    0.77810    0.23730    1.000
    C10      C        0.05840    0.76670    0.17140    1.000
    H9       H        0.06420    0.72680    0.13470    1.000
    C11      C        0.11420    0.85990    0.28530    1.000
    H10      H        0.15990    0.88640    0.32490    1.000
    C12      C        0.98420    0.78690    0.16680    1.000
    H11      H        0.94150    0.76480    0.12510    1.000
    C13      C        0.97250    0.83970    0.22350    1.000
    H12      H        0.91970    0.85080    0.22130    1.000
    C14      C        0.03560    0.87630    0.28290    1.000
    H13      H        0.02640    0.91190    0.32150    1.000
    C15      C        0.12440    0.80500    0.22980    1.000
    N2       N        0.19660    0.71040    0.20183    1.000
    N3       N        0.27280    0.69670    0.22130    1.000
    O1       O        0.28130    0.84120    0.28036    1.000
    O2       O        0.40940    0.70250    0.31384    1.000
    O3       O        0.30616    0.55766    0.04405    1.000
    H14      H        0.37050    0.60720    0.04090    1.000
    Mo1      Mo       0.38065    0.80508    0.30019    1.000
    C16      C        0.21950    0.79830    0.23230    1.000
    C17      C        0.15730    0.83980    0.21640    1.000
    C18      C        0.17480    0.92680    0.24690    1.000
    H15      H        0.22840    0.96240    0.27910    1.000
    C19      C        0.11350    0.96090    0.23000    1.000
    H16      H        0.12700    0.02080    0.25100    1.000
    C20      C        0.03630    0.91500    0.18590    1.000
    H17      H        0.99570    0.94080    0.17520    1.000
    C21      C        0.01920    0.83090    0.15770    1.000
    H18      H        0.96440    0.79640    0.12640    1.000
    C22      C        0.07640    0.79120    0.17120    1.000
    H19      H        0.06060    0.73090    0.14970    1.000
    C23      C        0.37750    0.64860    0.85827    1.000
    H20      H        0.41560    0.63670    0.82387    1.000
    C24      C        0.40530    0.74810    0.87527    1.000
    C25      C        0.47940    0.82280    0.83297    1.000
    C26      C        0.51290    0.91640    0.85467    1.000
    H21      H        0.56250    0.96770    0.82677    1.000
    N4       N        0.47540    0.93540    0.91568    1.000
    H22      H        0.49990    0.99590    0.92907    1.000
    C27      C        0.40360    0.86870    0.95727    1.000
    C28      C        0.36600    0.77180    0.93667    1.000
    C29      C        0.37070    0.89840    0.02527    1.000
    H23      H        0.40760    0.96870    0.03017    1.000
    H24      H        0.38080    0.86890    0.06997    1.000
    H25      H        0.30210    0.87730    0.02037    1.000
    C30      C        0.51940    0.80280    0.76317    1.000
    H26      H        0.56770    0.86420    0.73987    1.000
    H27      H        0.55160    0.76580    0.77637    1.000
    C31      C        0.22190    0.41950    0.90397    1.000
    C32      C        0.23330    0.29170    0.83807    1.000
    H28      H        0.27320    0.33740    0.80137    1.000
    C33      C        0.14010    0.25430    0.95197    1.000
    H29      H        0.11360    0.27350    0.99157    1.000
    C34      C        0.21310    0.19730    0.83347    1.000
    H30      H        0.23520    0.17670    0.79177    1.000
    C35      C        0.16030    0.13280    0.89017    1.000
    H31      H        0.14920    0.06890    0.88797    1.000
    C36      C        0.12370    0.15930    0.94957    1.000
    H32      H        0.08810    0.11450    0.98817    1.000
    C37      C        0.19500    0.31940    0.89647    1.000
    N5       N        0.28960    0.48620    0.86850    1.000
    N6       N        0.30330    0.57610    0.88797    1.000
    O4       O        0.15880    0.44010    0.94703    1.000
    O5       O        0.29750    0.70690    0.98051    1.000
    O6       O        0.44234    0.74850    0.71072    1.000
    H33      H        0.39280    0.76330    0.70757    1.000
    Mo2      Mo       0.19492    0.57557    0.96686    1.000
    C38      C        0.20170    0.42120    0.89897    1.000
    C39      C        0.16020    0.31750    0.88307    1.000
    C40      C        0.07320    0.24800    0.91357    1.000
    H34      H        0.03760    0.26600    0.94577    1.000
    C41      C        0.03910    0.15260    0.89667    1.000
    H35      H        0.97920    0.10620    0.91767    1.000
    C42      C        0.08500    0.12130    0.85257    1.000
    H36      H        0.05920    0.05490    0.84187    1.000
    C43      C        0.16910    0.18830    0.82437    1.000
    H37      H        0.20360    0.16800    0.79307    1.000
    C44      C        0.20880    0.28520    0.83787    1.000
    H38      H        0.26910    0.32970    0.81637    1.000
    C45      C        0.35140    0.72890    0.52493    1.000
    H39      H        0.36330    0.77890    0.49053    1.000
    C46      C        0.25190    0.65720    0.54193    1.000
    C47      C        0.17720    0.65660    0.49963    1.000
    C48      C        0.08360    0.59650    0.52133    1.000
    H40      H        0.03230    0.59480    0.49343    1.000
    N7       N        0.06460    0.54000    0.58234    1.000
    H41      H        0.00410    0.50400    0.59573    1.000
    C49      C        0.13130    0.53490    0.62393    1.000
    C50      C        0.22820    0.59420    0.60333    1.000
    C51      C        0.10160    0.47230    0.69193    1.000
    H42      H        0.03130    0.43890    0.69683    1.000
    H43      H        0.13110    0.51190    0.73663    1.000
    H44      H        0.12270    0.42480    0.68703    1.000
    C52      C        0.19720    0.71660    0.42983    1.000
    H45      H        0.13580    0.70350    0.40653    1.000
    H46      H        0.23420    0.78580    0.44303    1.000
    C53      C        0.58050    0.80240    0.57063    1.000
    C54      C        0.70830    0.94160    0.50473    1.000
    H47      H        0.66260    0.93580    0.46803    1.000
    C55      C        0.74570    0.88580    0.61863    1.000
    H48      H        0.72650    0.84010    0.65823    1.000
    C56      C        0.80270    0.01580    0.50013    1.000
    H49      H        0.82330    0.05850    0.45843    1.000
    C57      C        0.86720    0.02750    0.55683    1.000
    H50      H        0.93110    0.08030    0.55463    1.000
    C58      C        0.84070    0.96440    0.61623    1.000
    H51      H        0.88550    0.97360    0.65483    1.000
    C59      C        0.68060    0.87560    0.56313    1.000
    N8       N        0.51380    0.80340    0.53516    1.000
    N9       N        0.42390    0.72720    0.55463    1.000
    O7       O        0.55990    0.71870    0.61369    1.000
    O8       O        0.29310    0.59060    0.64717    1.000
    O9       O        0.25150    0.69384    0.37738    1.000
    H52      H        0.23670    0.62950    0.37423    1.000
    Mo3      Mo       0.42443    0.61935    0.63352    1.000
    C60      C        0.57880    0.78050    0.56563    1.000
    C61      C        0.68250    0.84270    0.54973    1.000
    C62      C        0.75200    0.82520    0.58023    1.000
    H53      H        0.73400    0.77160    0.61243    1.000
    C63      C        0.84740    0.88650    0.56333    1.000
    H54      H        0.89380    0.87300    0.58433    1.000
    C64      C        0.87870    0.96370    0.51923    1.000
    H55      H        0.94510    0.00430    0.50853    1.000
    C65      C        0.81170    0.98080    0.49103    1.000
    H56      H        0.83200    0.03560    0.45973    1.000
    C66      C        0.71480    0.92360    0.50453    1.000
    H57      H        0.67030    0.93940    0.48303    1.000
    C67      C        0.62250    0.27110    0.80840    1.000
    H58      H        0.58440    0.22110    0.84280    1.000
    C68      C        0.59470    0.34280    0.79140    1.000
    C69      C        0.52060    0.34340    0.83370    1.000
    C70      C        0.48710    0.40350    0.81200    1.000
    H59      H        0.43750    0.40520    0.83990    1.000
    N10      N        0.52460    0.46000    0.75099    1.000
    H60      H        0.50010    0.49600    0.73760    1.000
    C71      C        0.59640    0.46510    0.70940    1.000
    C72      C        0.63400    0.40580    0.73000    1.000
    C73      C        0.62930    0.52770    0.64140    1.000
    H61      H        0.59240    0.56110    0.63650    1.000
    H62      H        0.61920    0.48810    0.59670    1.000
    H63      H        0.69790    0.57520    0.64630    1.000
    C74      C        0.48060    0.28340    0.90350    1.000
    H64      H        0.43230    0.29650    0.92680    1.000
    H65      H        0.44840    0.21420    0.89030    1.000
    C75      C        0.77810    0.19760    0.76270    1.000
    C76      C        0.76670    0.05840    0.82860    1.000
    H66      H        0.72680    0.06420    0.86530    1.000
    C77      C        0.85990    0.11420    0.71470    1.000
    H67      H        0.88640    0.15990    0.67510    1.000
    C78      C        0.78690    0.98420    0.83320    1.000
    H68      H        0.76480    0.94150    0.87490    1.000
    C79      C        0.83970    0.97250    0.77650    1.000
    H69      H        0.85080    0.91970    0.77870    1.000
    C80      C        0.87630    0.03560    0.71710    1.000
    H70      H        0.91190    0.02640    0.67850    1.000
    C81      C        0.80500    0.12440    0.77020    1.000
    N11      N        0.71040    0.19660    0.79817    1.000
    N12      N        0.69670    0.27280    0.77870    1.000
    O10      O        0.84120    0.28130    0.71964    1.000
    O11      O        0.70250    0.40940    0.68616    1.000
    O12      O        0.55766    0.30616    0.95595    1.000
    H71      H        0.60720    0.37050    0.95910    1.000
    Mo4      Mo       0.80508    0.38065    0.69981    1.000
    C82      C        0.79830    0.21950    0.76770    1.000
    C83      C        0.83980    0.15730    0.78360    1.000
    C84      C        0.92680    0.17480    0.75310    1.000
    H72      H        0.96240    0.22840    0.72090    1.000
    C85      C        0.96090    0.11350    0.77000    1.000
    H73      H        0.02080    0.12700    0.74900    1.000
    C86      C        0.91500    0.03630    0.81410    1.000
    H74      H        0.94080    0.99570    0.82480    1.000
    C87      C        0.83090    0.01920    0.84230    1.000
    H75      H        0.79640    0.96440    0.87360    1.000
    C88      C        0.79120    0.07640    0.82880    1.000
    H76      H        0.73090    0.06060    0.85030    1.000
    C89      C        0.64860    0.37750    0.14173    1.000
    H77      H        0.63670    0.41560    0.17613    1.000
    C90      C        0.74810    0.40530    0.12473    1.000
    C91      C        0.82280    0.47940    0.16703    1.000
    C92      C        0.91640    0.51290    0.14533    1.000
    H78      H        0.96770    0.56250    0.17323    1.000
    N13      N        0.93540    0.47540    0.08432    1.000
    H79      H        0.99590    0.49990    0.07093    1.000
    C93      C        0.86870    0.40360    0.04273    1.000
    C94      C        0.77180    0.36600    0.06333    1.000
    C95      C        0.89840    0.37070    0.97473    1.000
    H80      H        0.96870    0.40760    0.96983    1.000
    H81      H        0.86890    0.38080    0.93003    1.000
    H82      H        0.87730    0.30210    0.97963    1.000
    C96      C        0.80280    0.51940    0.23683    1.000
    H83      H        0.86420    0.56770    0.26013    1.000
    H84      H        0.76580    0.55160    0.22363    1.000
    C97      C        0.41950    0.22190    0.09603    1.000
    C98      C        0.29170    0.23330    0.16193    1.000
    H85      H        0.33740    0.27320    0.19863    1.000
    C99      C        0.25430    0.14010    0.04803    1.000
    H86      H        0.27350    0.11360    0.00843    1.000
    C100     C        0.19730    0.21310    0.16653    1.000
    H87      H        0.17670    0.23520    0.20823    1.000
    C101     C        0.13280    0.16030    0.10983    1.000
    H88      H        0.06890    0.14920    0.11203    1.000
    C102     C        0.15930    0.12370    0.05043    1.000
    H89      H        0.11450    0.08810    0.01183    1.000
    C103     C        0.31940    0.19500    0.10353    1.000
    N14      N        0.48620    0.28960    0.13150    1.000
    N15      N        0.57610    0.30330    0.11203    1.000
    O13      O        0.44010    0.15880    0.05297    1.000
    O14      O        0.70690    0.29750    0.01949    1.000
    O15      O        0.74850    0.44234    0.28928    1.000
    H90      H        0.76330    0.39280    0.29243    1.000
    Mo5      Mo       0.57557    0.19492    0.03314    1.000
    C104     C        0.42120    0.20170    0.10103    1.000
    C105     C        0.31750    0.16020    0.11693    1.000
    C106     C        0.24800    0.07320    0.08643    1.000
    H91      H        0.26600    0.03760    0.05423    1.000
    C107     C        0.15260    0.03910    0.10333    1.000
    H92      H        0.10620    0.97920    0.08233    1.000
    C108     C        0.12130    0.08500    0.14743    1.000
    H93      H        0.05490    0.05920    0.15813    1.000
    C109     C        0.18830    0.16910    0.17563    1.000
    H94      H        0.16800    0.20360    0.20693    1.000
    C110     C        0.28520    0.20880    0.16213    1.000
    H95      H        0.32970    0.26910    0.18363    1.000
    C111     C        0.72890    0.35140    0.47507    1.000
    H96      H        0.77890    0.36330    0.50947    1.000
    C112     C        0.65720    0.25190    0.45807    1.000
    C113     C        0.65660    0.17720    0.50037    1.000
    C114     C        0.59650    0.08360    0.47867    1.000
    H97      H        0.59480    0.03230    0.50657    1.000
    N16      N        0.54000    0.06460    0.41766    1.000
    H98      H        0.50400    0.00410    0.40427    1.000
    C115     C        0.53490    0.13130    0.37607    1.000
    C116     C        0.59420    0.22820    0.39667    1.000
    C117     C        0.47230    0.10160    0.30807    1.000
    H99      H        0.43890    0.03130    0.30317    1.000
    H100     H        0.51190    0.13110    0.26337    1.000
    H101     H        0.42480    0.12270    0.31297    1.000
    C118     C        0.71660    0.19720    0.57017    1.000
    H102     H        0.70350    0.13580    0.59347    1.000
    H103     H        0.78580    0.23420    0.55697    1.000
    C119     C        0.80240    0.58050    0.42937    1.000
    C120     C        0.94160    0.70830    0.49527    1.000
    H104     H        0.93580    0.66260    0.53197    1.000
    C121     C        0.88580    0.74570    0.38137    1.000
    H105     H        0.84010    0.72650    0.34177    1.000
    C122     C        0.01580    0.80270    0.49987    1.000
    H106     H        0.05850    0.82330    0.54157    1.000
    C123     C        0.02750    0.86720    0.44317    1.000
    H107     H        0.08030    0.93110    0.44537    1.000
    C124     C        0.96440    0.84070    0.38377    1.000
    H108     H        0.97360    0.88550    0.34517    1.000
    C125     C        0.87560    0.68060    0.43687    1.000
    N17      N        0.80340    0.51380    0.46484    1.000
    N18      N        0.72720    0.42390    0.44537    1.000
    O16      O        0.71870    0.55990    0.38631    1.000
    O17      O        0.59060    0.29310    0.35283    1.000
    O18      O        0.69384    0.25150    0.62262    1.000
    H109     H        0.62950    0.23670    0.62577    1.000
    Mo6      Mo       0.61935    0.42443    0.36648    1.000
    C126     C        0.78050    0.57880    0.43437    1.000
    C127     C        0.84270    0.68250    0.45027    1.000
    C128     C        0.82520    0.75200    0.41977    1.000
    H110     H        0.77160    0.73400    0.38757    1.000
    C129     C        0.88650    0.84740    0.43667    1.000
    H111     H        0.87300    0.89380    0.41567    1.000
    C130     C        0.96370    0.87870    0.48077    1.000
    H112     H        0.00430    0.94510    0.49147    1.000
    C131     C        0.98080    0.81170    0.50897    1.000
    H113     H        0.03560    0.83200    0.54027    1.000
    C132     C        0.92360    0.71480    0.49547    1.000
    H114     H        0.93940    0.67030    0.51697    1.000
