# CIF file generated by openbabel 3.1.0, see https://openbabel.org
data_I
_chemical_name_common 'image0'
_cell_length_a 19.913
_cell_length_b 20.884
_cell_length_c 21.486
_cell_angle_alpha 116.076
_cell_angle_beta 98.55
_cell_angle_gamma 101.661
_space_group_name_H-M_alt 'P 1'
_space_group_name_Hall 'P 1'
loop_
    _symmetry_equiv_pos_as_xyz
    x,y,z
loop_
    _atom_site_label
    _atom_site_type_symbol
    _atom_site_fract_x
    _atom_site_fract_y
    _atom_site_fract_z
    _atom_site_occupancy
    C1       C        0.34150    0.61110    0.06700    1.000
    C2       C        0.38590    0.65770    0.12830    1.000
    H1       H        0.37080    0.69010    0.16550    1.000
    C3       C        0.36670    0.57030    0.00760    1.000
    H2       H        0.33500    0.54010    0.96210    1.000
    C4       C        0.64750    0.57580    0.97440    1.000
    C5       C        0.60740    0.47460    0.19710    1.000
    H3       H        0.59860    0.45080    0.14730    1.000
    C6       C        0.46440    0.65960    0.13980    1.000
    H4       H        0.49610    0.68760    0.18540    1.000
    C7       C        0.62970    0.44170    0.74870    1.000
    C8       C        0.64070    0.53060    0.89640    1.000
    C9       C        0.62020    0.55560    0.23840    1.000
    C10      C        0.67120    0.86080    0.22250    1.000
    C11      C        0.62390    0.40030    0.66990    1.000
    C12      C        0.56870    0.45790    0.77230    1.000
    H5       H        0.52460    0.44040    0.73940    1.000
    C13      C        0.57670    0.49950    0.84420    1.000
    H6       H        0.53620    0.50760    0.85910    1.000
    C14      C        0.67910    0.78710    0.17370    1.000
    C15      C        0.65780    0.00200    0.30610    1.000
    C16      C        0.26690    0.60670    0.05640    1.000
    H7       H        0.23750    0.57060    0.01110    1.000
    C17      C        0.23630    0.64420    0.09920    1.000
    H8       H        0.26250    0.67510    0.14700    1.000
    C18      C        0.04260    0.59640    0.01830    1.000
    H9       H        0.00770    0.56080    0.97630    1.000
    C19      C        0.61610    0.59960    0.19940    1.000
    C20      C        0.69500    0.47290    0.80260    1.000
    H10      H        0.73580    0.46440    0.78860    1.000
    C21      C        0.16080    0.64310    0.07930    1.000
    C22      C        0.43590    0.57510    0.01660    1.000
    H11      H        0.45030    0.54690    0.97660    1.000
    C23      C        0.60860    0.43530    0.23250    1.000
    H12      H        0.59910    0.38390    0.20500    1.000
    C24      C        0.10770    0.58720    0.03250    1.000
    H13      H        0.11370    0.54030    0.00820    1.000
    C25      C        0.62290    0.46500    0.30720    1.000
    C26      C        0.15700    0.70160    0.13760    1.000
    H14      H        0.19510    0.73370    0.17800    1.000
    C27      C        0.70100    0.51440    0.87300    1.000
    H15      H        0.74490    0.53250    0.90650    1.000
    C28      C        0.07650    0.70920    0.12850    1.000
    H16      H        0.06470    0.74670    0.16460    1.000
    C29      C        0.62300    0.33450    0.41450    1.000
    C30      C        0.63600    0.22310    0.41790    1.000
    C31      C        0.66850    0.35460    0.64690    1.000
    H17      H        0.69920    0.34940    0.68030    1.000
    C32      C        0.63000    0.54350    0.34740    1.000
    H18      H        0.63410    0.56480    0.39650    1.000
    C33      C        0.57860    0.40810    0.61920    1.000
    H19      H        0.55110    0.44010    0.63420    1.000
    C34      C        0.73070    0.99580    0.30630    1.000
    H20      H        0.77140    0.03670    0.33200    1.000
    C35      C        0.63110    0.58750    0.31500    1.000
    H21      H        0.63890    0.63860    0.34300    1.000
    C36      C        0.65010    0.07910    0.34590    1.000
    C37      C        0.60860    0.86970    0.22870    1.000
    H22      H        0.56860    0.82780    0.20530    1.000
    C38      C        0.73290    0.92220    0.26400    1.000
    H23      H        0.77700    0.91400    0.26360    1.000
    C39      C        0.59960    0.94100    0.26970    1.000
    H24      H        0.55440    0.94560    0.27160    1.000
    C40      C        0.62410    0.42080    0.34280    1.000
    C41      C        0.66020    0.45340    0.41550    1.000
    H25      H        0.68370    0.50450    0.44050    1.000
    C42      C        0.66630    0.31820    0.57590    1.000
    H26      H        0.69560    0.28800    0.56080    1.000
    C43      C        0.66250    0.41430    0.45020    1.000
    H27      H        0.68960    0.43790    0.49780    1.000
    C44      C        0.57450    0.36860    0.54680    1.000
    H28      H        0.54130    0.37090    0.51310    1.000
    C45      C        0.61900    0.32620    0.52460    1.000
    C46      C        0.60400    0.09500    0.38850    1.000
    H29      H        0.57920    0.05640    0.39470    1.000
    C47      C        0.58640    0.30200    0.34040    1.000
    H30      H        0.56200    0.25110    0.31360    1.000
    C48      C        0.58780    0.34480    0.31120    1.000
    H31      H        0.56150    0.32210    0.26340    1.000
    C49      C        0.69030    0.13740    0.34230    1.000
    H32      H        0.72260    0.12920    0.31470    1.000
    C50      C        0.68460    0.21120    0.37960    1.000
    H33      H        0.71400    0.25050    0.37760    1.000
    C51      C        0.59100    0.16320    0.42310    1.000
    H34      H        0.55610    0.16980    0.44760    1.000
    N1       N        0.02860    0.65870    0.06640    1.000
    N2       N        0.48660    0.61870    0.08090    1.000
    N3       N        0.62040    0.29350    0.45060    1.000
    O1       O        0.73940    0.78080    0.17160    1.000
    O2       O        0.61620    0.57000    0.13650    1.000
    O3       O        0.59020    0.58350    0.99070    1.000
    O4       O        0.60750    0.66410    0.23400    1.000
    O5       O        0.62030    0.73490    0.13580    1.000
    O6       O        0.70750    0.60210    0.01850    1.000
    Cu1      Cu       0.58952    0.62921    0.09287    1.000
    Cu2      Cu       0.76347    0.70376    0.09075    1.000
    C52      C        0.90350    0.87660    0.16500    1.000
    C53      C        0.88970    0.01670    0.23600    1.000
    C54      C        0.88320    0.09720    0.27830    1.000
    C55      C        0.85260    0.12650    0.24390    1.000
    H35      H        0.83750    0.10010    0.19390    1.000
    C56      C        0.90910    0.13560    0.34990    1.000
    H36      H        0.92970    0.11360    0.37390    1.000
    C57      C        0.95150    0.92440    0.22480    1.000
    H37      H        0.98740    0.91080    0.24420    1.000
    C58      C        0.84370    0.96440    0.17350    1.000
    H38      H        0.80630    0.97620    0.15390    1.000
    C59      C        0.84420    0.61860    0.13570    1.000
    C60      C        0.84960    0.89470    0.13740    1.000
    H39      H        0.81660    0.85950    0.09390    1.000
    C61      C        0.94690    0.99850    0.25930    1.000
    H40      H        0.98370    0.03550    0.29880    1.000
    C62      C        0.87000    0.24060    0.35390    1.000
    C63      C        0.85140    0.48590    0.24260    1.000
    C64      C        0.84850    0.57650    0.17510    1.000
    C65      C        0.88430    0.49140    0.80420    1.000
    H41      H        0.87870    0.46660    0.83090    1.000
    C66      C        0.90950    0.43060    0.50470    1.000
    H42      H        0.92890    0.45470    0.48100    1.000
    C67      C        0.84470    0.32020    0.50410    1.000
    H43      H        0.82260    0.26890    0.48020    1.000
    C68      C        0.79770    0.56540    0.20930    1.000
    H44      H        0.76100    0.58670    0.20870    1.000
    C69      C        0.88020    0.45090    0.73470    1.000
    H45      H        0.87190    0.39960    0.71540    1.000
    C70      C        0.88610    0.43590    0.61260    1.000
    C71      C        0.89680    0.57000    0.84000    1.000
    C72      C        0.85330    0.44040    0.28160    1.000
    C73      C        0.90100    0.61730    0.91300    1.000
    C74      C        0.87450    0.35390    0.46780    1.000
    C75      C        0.84170    0.19770    0.28060    1.000
    H46      H        0.81560    0.21500    0.25520    1.000
    C76      C        0.90400    0.60270    0.79480    1.000
    H47      H        0.91240    0.65390    0.81360    1.000
    C77      C        0.85870    0.35560    0.35080    1.000
    C78      C        0.84750    0.36160    0.57400    1.000
    H48      H        0.82280    0.33940    0.59640    1.000
    C79      C        0.90570    0.40710    0.28110    1.000
    H49      H        0.93820    0.41130    0.25510    1.000
    C80      C        0.79920    0.52210    0.24580    1.000
    H50      H        0.76590    0.51830    0.27110    1.000
    C81      C        0.80350    0.38550    0.34860    1.000
    H51      H        0.76580    0.37600    0.36730    1.000
    C82      C        0.91460    0.46990    0.57710    1.000
    H52      H        0.93820    0.52090    0.60230    1.000
    C83      C        0.90560    0.21010    0.39010    1.000
    H53      H        0.92670    0.23780    0.43950    1.000
    C84      C        0.88780    0.48170    0.69110    1.000
    C85      C        0.89800    0.53790    0.17390    1.000
    H54      H        0.92730    0.53660    0.14380    1.000
    C86      C        0.90790    0.50130    0.21320    1.000
    H55      H        0.94900    0.48770    0.21990    1.000
    C87      C        0.91250    0.36510    0.31990    1.000
    H56      H        0.95060    0.34620    0.32320    1.000
    C88      C        0.91190    0.79860    0.12380    1.000
    C89      C        0.80740    0.42980    0.31730    1.000
    H57      H        0.77400    0.45570    0.32150    1.000
    C90      C        0.89890    0.55950    0.72480    1.000
    H58      H        0.90290    0.58270    0.69660    1.000
    N4       N        0.86740    0.31360    0.38850    1.000
    O7       O        0.80500    0.66300    0.15270    1.000
    O8       O        0.85300    0.74250    0.07480    1.000
    O9       O        0.96580    0.78340    0.12930    1.000
    O10      O        0.93050    0.68350    0.94870    1.000
    O11      O        0.88320    0.58250    0.94690    1.000
    O12      O        0.89040    0.61590    0.10270    1.000
    Cu3      Cu       0.92389    0.66733    0.04995    1.000
    C91      C        0.65850    0.38890    0.93300    1.000
    C92      C        0.61410    0.34230    0.87170    1.000
    H59      H        0.62920    0.30990    0.83450    1.000
    C93      C        0.63330    0.42970    0.99240    1.000
    H60      H        0.66500    0.45990    0.03790    1.000
    C94      C        0.35250    0.42420    0.02560    1.000
    C95      C        0.39260    0.52540    0.80290    1.000
    H61      H        0.40140    0.54920    0.85270    1.000
    C96      C        0.53560    0.34040    0.86020    1.000
    H62      H        0.50390    0.31240    0.81460    1.000
    C97      C        0.37030    0.55830    0.25130    1.000
    C98      C        0.35930    0.46940    0.10360    1.000
    C99      C        0.37980    0.44440    0.76160    1.000
    C100     C        0.32880    0.13920    0.77750    1.000
    C101     C        0.37610    0.59970    0.33010    1.000
    C102     C        0.43130    0.54210    0.22770    1.000
    H63      H        0.47540    0.55960    0.26060    1.000
    C103     C        0.42330    0.50050    0.15580    1.000
    H64      H        0.46380    0.49240    0.14090    1.000
    C104     C        0.32090    0.21290    0.82630    1.000
    C105     C        0.34220    0.99800    0.69390    1.000
    C106     C        0.73310    0.39330    0.94360    1.000
    H65      H        0.76250    0.42940    0.98890    1.000
    C107     C        0.76370    0.35580    0.90080    1.000
    H66      H        0.73750    0.32490    0.85300    1.000
    C108     C        0.95740    0.40360    0.98170    1.000
    H67      H        0.99230    0.43920    0.02370    1.000
    C109     C        0.38390    0.40040    0.80060    1.000
    C110     C        0.30500    0.52710    0.19740    1.000
    H68      H        0.26420    0.53560    0.21140    1.000
    C111     C        0.83920    0.35690    0.92070    1.000
    C112     C        0.56410    0.42490    0.98340    1.000
    H69      H        0.54970    0.45310    0.02340    1.000
    C113     C        0.39140    0.56470    0.76750    1.000
    H70      H        0.40090    0.61610    0.79500    1.000
    C114     C        0.89230    0.41280    0.96750    1.000
    H71      H        0.88630    0.45970    0.99180    1.000
    C115     C        0.37710    0.53500    0.69280    1.000
    C116     C        0.84300    0.29840    0.86240    1.000
    H72      H        0.80490    0.26630    0.82200    1.000
    C117     C        0.29900    0.48560    0.12700    1.000
    H73      H        0.25510    0.46750    0.09350    1.000
    C118     C        0.92350    0.29080    0.87150    1.000
    H74      H        0.93530    0.25330    0.83540    1.000
    C119     C        0.37700    0.66550    0.58550    1.000
    C120     C        0.36400    0.77690    0.58210    1.000
    C121     C        0.33150    0.64540    0.35310    1.000
    H75      H        0.30080    0.65060    0.31970    1.000
    C122     C        0.37000    0.45650    0.65260    1.000
    H76      H        0.36590    0.43520    0.60350    1.000
    C123     C        0.42140    0.59190    0.38080    1.000
    H77      H        0.44890    0.55990    0.36580    1.000
    C124     C        0.26930    0.00420    0.69370    1.000
    H78      H        0.22860    0.96330    0.66800    1.000
    C125     C        0.36890    0.41250    0.68500    1.000
    H79      H        0.36110    0.36140    0.65700    1.000
    C126     C        0.34990    0.92090    0.65410    1.000
    C127     C        0.39140    0.13030    0.77130    1.000
    H80      H        0.43140    0.17220    0.79470    1.000
    C128     C        0.26710    0.07780    0.73600    1.000
    H81      H        0.22300    0.08600    0.73640    1.000
    C129     C        0.40040    0.05900    0.73030    1.000
    H82      H        0.44560    0.05440    0.72840    1.000
    C130     C        0.37590    0.57920    0.65720    1.000
    C131     C        0.33980    0.54660    0.58450    1.000
    H83      H        0.31630    0.49550    0.55950    1.000
    C132     C        0.33370    0.68180    0.42410    1.000
    H84      H        0.30440    0.71200    0.43920    1.000
    C133     C        0.33750    0.58570    0.54980    1.000
    H85      H        0.31040    0.56210    0.50220    1.000
    C134     C        0.42550    0.63140    0.45320    1.000
    H86      H        0.45870    0.62910    0.48690    1.000
    C135     C        0.38100    0.67380    0.47540    1.000
    C136     C        0.39600    0.90500    0.61150    1.000
    H87      H        0.42080    0.94360    0.60530    1.000
    C137     C        0.41360    0.69800    0.65960    1.000
    H88      H        0.43800    0.74890    0.68640    1.000
    C138     C        0.41220    0.65520    0.68880    1.000
    H89      H        0.43850    0.67790    0.73660    1.000
    C139     C        0.30970    0.86260    0.65770    1.000
    H90      H        0.27740    0.87080    0.68530    1.000
    C140     C        0.31540    0.78880    0.62040    1.000
    H91      H        0.28600    0.74950    0.62240    1.000
    C141     C        0.40900    0.83680    0.57690    1.000
    H92      H        0.44390    0.83020    0.55240    1.000
    N5       N        0.97140    0.34130    0.93360    1.000
    N6       N        0.51340    0.38130    0.91910    1.000
    N7       N        0.37960    0.70650    0.54940    1.000
    O13      O        0.26060    0.21920    0.82840    1.000
    O14      O        0.38380    0.43000    0.86350    1.000
    O15      O        0.40980    0.41650    0.00930    1.000
    O16      O        0.39250    0.33590    0.76600    1.000
    O17      O        0.37970    0.26510    0.86420    1.000
    O18      O        0.29250    0.39790    0.98150    1.000
    Cu4      Cu       0.41048    0.37079    0.90713    1.000
    Cu5      Cu       0.23653    0.29624    0.90925    1.000
    C142     C        0.09650    0.12340    0.83500    1.000
    C143     C        0.11030    0.98330    0.76400    1.000
    C144     C        0.11680    0.90280    0.72170    1.000
    C145     C        0.14740    0.87350    0.75610    1.000
    H93      H        0.16250    0.89990    0.80610    1.000
    C146     C        0.09090    0.86440    0.65010    1.000
    H94      H        0.07030    0.88640    0.62610    1.000
    C147     C        0.04850    0.07560    0.77520    1.000
    H95      H        0.01260    0.08920    0.75580    1.000
    C148     C        0.15630    0.03560    0.82650    1.000
    H96      H        0.19370    0.02380    0.84610    1.000
    C149     C        0.15580    0.38140    0.86430    1.000
    C150     C        0.15040    0.10530    0.86260    1.000
    H97      H        0.18340    0.14050    0.90610    1.000
    C151     C        0.05310    0.00150    0.74070    1.000
    H98      H        0.01630    0.96450    0.70120    1.000
    C152     C        0.13000    0.75940    0.64610    1.000
    C153     C        0.14860    0.51410    0.75740    1.000
    C154     C        0.15150    0.42350    0.82490    1.000
    C155     C        0.11570    0.50860    0.19580    1.000
    H99      H        0.12130    0.53340    0.16910    1.000
    C156     C        0.09050    0.56940    0.49530    1.000
    H100     H        0.07110    0.54530    0.51900    1.000
    C157     C        0.15530    0.67980    0.49590    1.000
    H101     H        0.17740    0.73110    0.51980    1.000
    C158     C        0.20230    0.43460    0.79070    1.000
    H102     H        0.23900    0.41330    0.79130    1.000
    C159     C        0.11980    0.54910    0.26530    1.000
    H103     H        0.12810    0.60040    0.28460    1.000
    C160     C        0.11390    0.56410    0.38740    1.000
    C161     C        0.10320    0.43000    0.16000    1.000
    C162     C        0.14670    0.55960    0.71840    1.000
    C163     C        0.09900    0.38270    0.08700    1.000
    C164     C        0.12550    0.64610    0.53220    1.000
    C165     C        0.15830    0.80230    0.71940    1.000
    H104     H        0.18440    0.78500    0.74480    1.000
    C166     C        0.09600    0.39730    0.20520    1.000
    H105     H        0.08760    0.34610    0.18640    1.000
    C167     C        0.14130    0.64440    0.64920    1.000
    C168     C        0.15250    0.63840    0.42600    1.000
    H106     H        0.17720    0.66060    0.40360    1.000
    C169     C        0.09430    0.59290    0.71890    1.000
    H107     H        0.06180    0.58870    0.74490    1.000
    C170     C        0.20080    0.47790    0.75420    1.000
    H108     H        0.23410    0.48170    0.72890    1.000
    C171     C        0.19650    0.61450    0.65140    1.000
    H109     H        0.23420    0.62400    0.63270    1.000
    C172     C        0.08540    0.53010    0.42290    1.000
    H110     H        0.06180    0.47910    0.39770    1.000
    C173     C        0.09440    0.78990    0.60990    1.000
    H111     H        0.07330    0.76220    0.56050    1.000
    C174     C        0.11220    0.51830    0.30890    1.000
    C175     C        0.10200    0.46210    0.82610    1.000
    H112     H        0.07270    0.46340    0.85620    1.000
    C176     C        0.09210    0.49870    0.78680    1.000
    H113     H        0.05100    0.51230    0.78010    1.000
    C177     C        0.08750    0.63490    0.68010    1.000
    H114     H        0.04940    0.65380    0.67680    1.000
    C178     C        0.08810    0.20140    0.87620    1.000
    C179     C        0.19260    0.57020    0.68270    1.000
    H115     H        0.22600    0.54430    0.67850    1.000
    C180     C        0.10110    0.44050    0.27520    1.000
    H116     H        0.09710    0.41730    0.30340    1.000
    N8       N        0.13260    0.68640    0.61150    1.000
    O19      O        0.19500    0.33700    0.84730    1.000
    O20      O        0.14700    0.25750    0.92520    1.000
    O21      O        0.03420    0.21660    0.87070    1.000
    O22      O        0.06950    0.31650    0.05130    1.000
    O23      O        0.11680    0.41750    0.05310    1.000
    O24      O        0.10960    0.38410    0.89730    1.000
    Cu6      Cu       0.07611    0.33267    0.95005    1.000
