# CIF file generated by openbabel 3.1.0, see https://openbabel.org
data_I
_chemical_name_common 'TEYHIP_charged'
_cell_length_a 21.4393
_cell_length_b 21.4393
_cell_length_c 21.4393
_cell_angle_alpha 109.471
_cell_angle_beta 109.471
_cell_angle_gamma 109.471
_space_group_name_H-M_alt 'P 1'
_space_group_name_Hall 'P 1'
loop_
    _symmetry_equiv_pos_as_xyz
    x,y,z
loop_
    _atom_site_label
    _atom_site_type_symbol
    _atom_site_fract_x
    _atom_site_fract_y
    _atom_site_fract_z
    _atom_site_occupancy
    Cd1      Cd       0.00000    0.00000    0.00000    1.000
    Cd2      Cd       0.50000    0.00000    0.50000    1.000
    Cd3      Cd       0.00000    0.50000    0.50000    1.000
    Cd4      Cd       0.50000    0.50000    0.00000    1.000
    H1       H        0.91640    0.84040    0.99800    1.000
    H2       H        0.86370    0.78260    0.05450    1.000
    H3       H        0.89440    0.98760    0.18500    1.000
    H4       H        0.94000    0.03280    0.11980    1.000
    H5       H        0.83570    0.71300    0.23690    1.000
    H6       H        0.83840    0.88530    0.20250    1.000
    H7       H        0.34240    0.91840    0.50200    1.000
    H8       H        0.22810    0.80920    0.44550    1.000
    H9       H        0.30260    0.70940    0.31500    1.000
    H10      H        0.41300    0.82020    0.38020    1.000
    H11      H        0.97610    0.59880    0.26310    1.000
    H12      H        0.18280    0.63590    0.29750    1.000
    H13      H        0.15760    0.65960    0.57600    1.000
    H14      H        0.27190    0.71740    0.58110    1.000
    H15      H        0.19740    0.51240    0.40680    1.000
    H16      H        0.08700    0.46720    0.40720    1.000
    H17      H        0.52390    0.78700    0.62270    1.000
    H18      H        0.31720    0.61470    0.45310    1.000
    H19      H        0.58360    0.58160    0.92400    1.000
    H20      H        0.63630    0.69080    0.91890    1.000
    H21      H        0.60560    0.79060    0.09320    1.000
    H22      H        0.56000    0.67980    0.09280    1.000
    H23      H        0.66430    0.90120    0.87730    1.000
    H24      H        0.66160    0.86410    0.04690    1.000
    H25      H        0.07600    0.15760    0.15960    1.000
    H26      H        0.08110    0.27190    0.21740    1.000
    H27      H        0.90680    0.19740    0.01240    1.000
    H28      H        0.90720    0.08700    0.96720    1.000
    H29      H        0.12270    0.52390    0.28700    1.000
    H30      H        0.95310    0.31720    0.11470    1.000
    H31      H        0.42400    0.58360    0.08160    1.000
    H32      H        0.41890    0.63630    0.19080    1.000
    H33      H        0.59320    0.60560    0.29060    1.000
    H34      H        0.59280    0.56000    0.17980    1.000
    H35      H        0.37730    0.66430    0.40120    1.000
    H36      H        0.54690    0.66160    0.36410    1.000
    H37      H        0.49800    0.91640    0.34040    1.000
    H38      H        0.55450    0.86370    0.28260    1.000
    H39      H        0.68500    0.89440    0.48760    1.000
    H40      H        0.61980    0.94000    0.53280    1.000
    H41      H        0.73690    0.83570    0.21300    1.000
    H42      H        0.70250    0.83840    0.38530    1.000
    H43      H        0.00200    0.34240    0.41840    1.000
    H44      H        0.94550    0.22810    0.30920    1.000
    H45      H        0.81500    0.30260    0.20940    1.000
    H46      H        0.88020    0.41300    0.32020    1.000
    H47      H        0.76310    0.97610    0.09880    1.000
    H48      H        0.79750    0.18280    0.13590    1.000
    H49      H        0.91840    0.00200    0.84240    1.000
    H50      H        0.80920    0.94550    0.72810    1.000
    H51      H        0.70940    0.81500    0.80260    1.000
    H52      H        0.82020    0.88020    0.91300    1.000
    H53      H        0.59880    0.76310    0.47610    1.000
    H54      H        0.63590    0.79750    0.68280    1.000
    H55      H        0.84040    0.49800    0.41640    1.000
    H56      H        0.78260    0.55450    0.36370    1.000
    H57      H        0.98760    0.68500    0.39440    1.000
    H58      H        0.03280    0.61980    0.44000    1.000
    H59      H        0.71300    0.73690    0.33570    1.000
    H60      H        0.88530    0.70250    0.33840    1.000
    H61      H        0.58160    0.42400    0.08360    1.000
    H62      H        0.69080    0.41890    0.13630    1.000
    H63      H        0.79060    0.59320    0.10560    1.000
    H64      H        0.67980    0.59280    0.06000    1.000
    H65      H        0.90120    0.37730    0.16430    1.000
    H66      H        0.86410    0.54690    0.16160    1.000
    H67      H        0.65960    0.07600    0.65760    1.000
    H68      H        0.71740    0.08110    0.77190    1.000
    H69      H        0.51240    0.90680    0.69740    1.000
    H70      H        0.46720    0.90720    0.58700    1.000
    H71      H        0.78700    0.12270    0.02390    1.000
    H72      H        0.61470    0.95310    0.81720    1.000
    H73      H        0.08360    0.15960    0.00200    1.000
    H74      H        0.13630    0.21740    0.94550    1.000
    H75      H        0.10560    0.01240    0.81500    1.000
    H76      H        0.06000    0.96720    0.88020    1.000
    H77      H        0.16430    0.28700    0.76310    1.000
    H78      H        0.16160    0.11470    0.79750    1.000
    H79      H        0.65760    0.08160    0.49800    1.000
    H80      H        0.77190    0.19080    0.55450    1.000
    H81      H        0.69740    0.29060    0.68500    1.000
    H82      H        0.58700    0.17980    0.61980    1.000
    H83      H        0.02390    0.40120    0.73690    1.000
    H84      H        0.81720    0.36410    0.70250    1.000
    H85      H        0.84240    0.34040    0.42400    1.000
    H86      H        0.72810    0.28260    0.41890    1.000
    H87      H        0.80260    0.48760    0.59320    1.000
    H88      H        0.91300    0.53280    0.59280    1.000
    H89      H        0.47610    0.21300    0.37730    1.000
    H90      H        0.68280    0.38530    0.54690    1.000
    H91      H        0.41640    0.41840    0.07600    1.000
    H92      H        0.36370    0.30920    0.08110    1.000
    H93      H        0.39440    0.20940    0.90680    1.000
    H94      H        0.44000    0.32020    0.90720    1.000
    H95      H        0.33570    0.09880    0.12270    1.000
    H96      H        0.33840    0.13590    0.95310    1.000
    H97      H        0.92400    0.84240    0.84040    1.000
    H98      H        0.91890    0.72810    0.78260    1.000
    H99      H        0.09320    0.80260    0.98760    1.000
    H100     H        0.09280    0.91300    0.03280    1.000
    H101     H        0.87730    0.47610    0.71300    1.000
    H102     H        0.04690    0.68280    0.88530    1.000
    H103     H        0.57600    0.41640    0.91840    1.000
    H104     H        0.58110    0.36370    0.80920    1.000
    H105     H        0.40680    0.39440    0.70940    1.000
    H106     H        0.40720    0.44000    0.82020    1.000
    H107     H        0.62270    0.33570    0.59880    1.000
    H108     H        0.45310    0.33840    0.63590    1.000
    H109     H        0.50200    0.08360    0.65960    1.000
    H110     H        0.44550    0.13630    0.71740    1.000
    H111     H        0.31500    0.10560    0.51240    1.000
    H112     H        0.38020    0.06000    0.46720    1.000
    H113     H        0.26310    0.16430    0.78700    1.000
    H114     H        0.29750    0.16160    0.61470    1.000
    H115     H        0.99800    0.65760    0.58160    1.000
    H116     H        0.05450    0.77190    0.69080    1.000
    H117     H        0.18500    0.69740    0.79060    1.000
    H118     H        0.11980    0.58700    0.67980    1.000
    H119     H        0.23690    0.02390    0.90120    1.000
    H120     H        0.20250    0.81720    0.86410    1.000
    H121     H        0.08160    0.99800    0.15760    1.000
    H122     H        0.19080    0.05450    0.27190    1.000
    H123     H        0.29060    0.18500    0.19740    1.000
    H124     H        0.17980    0.11980    0.08700    1.000
    H125     H        0.40120    0.23690    0.52390    1.000
    H126     H        0.36410    0.20250    0.31720    1.000
    H127     H        0.15960    0.50200    0.58360    1.000
    H128     H        0.21740    0.44550    0.63630    1.000
    H129     H        0.01240    0.31500    0.60560    1.000
    H130     H        0.96720    0.38020    0.56000    1.000
    H131     H        0.28700    0.26310    0.66430    1.000
    H132     H        0.11470    0.29750    0.66160    1.000
    H133     H        0.41840    0.57600    0.91640    1.000
    H134     H        0.30920    0.58110    0.86370    1.000
    H135     H        0.20940    0.40680    0.89440    1.000
    H136     H        0.32020    0.40720    0.94000    1.000
    H137     H        0.09880    0.62270    0.83570    1.000
    H138     H        0.13590    0.45310    0.83840    1.000
    H139     H        0.34040    0.92400    0.34240    1.000
    H140     H        0.28260    0.91890    0.22810    1.000
    H141     H        0.48760    0.09320    0.30260    1.000
    H142     H        0.53280    0.09280    0.41300    1.000
    H143     H        0.21300    0.87730    0.97610    1.000
    H144     H        0.38530    0.04690    0.18280    1.000
    C1       C        0.91130    0.87060    0.03650    1.000
    C2       C        0.87970    0.83380    0.06950    1.000
    C3       C        0.87260    0.87950    0.12750    1.000
    C4       C        0.89780    0.95560    0.14600    1.000
    C5       C        0.92540    0.98230    0.10710    1.000
    C6       C        0.82160    0.78530    0.16570    1.000
    C7       C        0.79150    0.77580    0.21810    1.000
    C8       C        0.80540    0.73290    0.24670    1.000
    C9       C        0.33410    0.87480    0.46350    1.000
    C10      C        0.26430    0.81020    0.43050    1.000
    C11      C        0.25200    0.74510    0.37250    1.000
    C12      C        0.30960    0.75180    0.35400    1.000
    C13      C        0.37520    0.81830    0.39290    1.000
    C14      C        0.11960    0.65590    0.33430    1.000
    C15      C        0.05770    0.57340    0.28190    1.000
    C16      C        0.98620    0.55870    0.25330    1.000
    C17      C        0.16590    0.62940    0.54070    1.000
    C18      C        0.23570    0.66620    0.54590    1.000
    C19      C        0.24800    0.62050    0.49310    1.000
    C20      C        0.19040    0.54440    0.44220    1.000
    C21      C        0.12480    0.51770    0.44310    1.000
    C22      C        0.38040    0.71470    0.53630    1.000
    C23      C        0.44230    0.72420    0.51570    1.000
    C24      C        0.51380    0.76710    0.57250    1.000
    C25      C        0.58870    0.62520    0.95930    1.000
    C26      C        0.62030    0.68980    0.95410    1.000
    C27      C        0.62740    0.75490    0.00690    1.000
    C28      C        0.60220    0.74820    0.05780    1.000
    C29      C        0.57460    0.68170    0.05690    1.000
    C30      C        0.67840    0.84410    0.96370    1.000
    C31      C        0.70850    0.92660    0.98430    1.000
    C32      C        0.69460    0.94130    0.92750    1.000
    C33      C        0.04070    0.16590    0.12940    1.000
    C34      C        0.04590    0.23570    0.16620    1.000
    C35      C        0.99310    0.24800    0.12050    1.000
    C36      C        0.94220    0.19040    0.04440    1.000
    C37      C        0.94310    0.12480    0.01770    1.000
    C38      C        0.03630    0.38040    0.21470    1.000
    C39      C        0.01570    0.44230    0.22420    1.000
    C40      C        0.07250    0.51380    0.26710    1.000
    C41      C        0.45930    0.58870    0.12520    1.000
    C42      C        0.45410    0.62030    0.18980    1.000
    C43      C        0.50690    0.62740    0.25490    1.000
    C44      C        0.55780    0.60220    0.24820    1.000
    C45      C        0.55690    0.57460    0.18170    1.000
    C46      C        0.46370    0.67840    0.34410    1.000
    C47      C        0.48430    0.70850    0.42660    1.000
    C48      C        0.42750    0.69460    0.44130    1.000
    C49      C        0.53650    0.91130    0.37060    1.000
    C50      C        0.56950    0.87970    0.33380    1.000
    C51      C        0.62750    0.87260    0.37950    1.000
    C52      C        0.64600    0.89780    0.45560    1.000
    C53      C        0.60710    0.92540    0.48230    1.000
    C54      C        0.66570    0.82160    0.28530    1.000
    C55      C        0.71810    0.79150    0.27580    1.000
    C56      C        0.74670    0.80540    0.23290    1.000
    C57      C        0.96350    0.33410    0.37480    1.000
    C58      C        0.93050    0.26430    0.31020    1.000
    C59      C        0.87250    0.25200    0.24510    1.000
    C60      C        0.85400    0.30960    0.25180    1.000
    C61      C        0.89290    0.37520    0.31830    1.000
    C62      C        0.83430    0.11960    0.15590    1.000
    C63      C        0.78190    0.05770    0.07340    1.000
    C64      C        0.75330    0.98620    0.05870    1.000
    C65      C        0.87480    0.96350    0.83410    1.000
    C66      C        0.81020    0.93050    0.76430    1.000
    C67      C        0.74510    0.87250    0.75200    1.000
    C68      C        0.75180    0.85400    0.80960    1.000
    C69      C        0.81830    0.89290    0.87520    1.000
    C70      C        0.65590    0.83430    0.61960    1.000
    C71      C        0.57340    0.78190    0.55770    1.000
    C72      C        0.55870    0.75330    0.48620    1.000
    C73      C        0.87060    0.53650    0.41130    1.000
    C74      C        0.83380    0.56950    0.37970    1.000
    C75      C        0.87950    0.62750    0.37260    1.000
    C76      C        0.95560    0.64600    0.39780    1.000
    C77      C        0.98230    0.60710    0.42540    1.000
    C78      C        0.78530    0.66570    0.32160    1.000
    C79      C        0.77580    0.71810    0.29150    1.000
    C80      C        0.73290    0.74670    0.30540    1.000
    C81      C        0.62520    0.45930    0.08870    1.000
    C82      C        0.68980    0.45410    0.12030    1.000
    C83      C        0.75490    0.50690    0.12740    1.000
    C84      C        0.74820    0.55780    0.10220    1.000
    C85      C        0.68170    0.55690    0.07460    1.000
    C86      C        0.84410    0.46370    0.17840    1.000
    C87      C        0.92660    0.48430    0.20850    1.000
    C88      C        0.94130    0.42750    0.19460    1.000
    C89      C        0.62940    0.04070    0.66590    1.000
    C90      C        0.66620    0.04590    0.73570    1.000
    C91      C        0.62050    0.99310    0.74800    1.000
    C92      C        0.54440    0.94220    0.69040    1.000
    C93      C        0.51770    0.94310    0.62480    1.000
    C94      C        0.71470    0.03630    0.88040    1.000
    C95      C        0.72420    0.01570    0.94230    1.000
    C96      C        0.76710    0.07250    0.01380    1.000
    C97      C        0.08870    0.12940    0.96350    1.000
    C98      C        0.12030    0.16620    0.93050    1.000
    C99      C        0.12740    0.12050    0.87250    1.000
    C100     C        0.10220    0.04440    0.85400    1.000
    C101     C        0.07460    0.01770    0.89290    1.000
    C102     C        0.17840    0.21470    0.83430    1.000
    C103     C        0.20850    0.22420    0.78190    1.000
    C104     C        0.19460    0.26710    0.75330    1.000
    C105     C        0.66590    0.12520    0.53650    1.000
    C106     C        0.73570    0.18980    0.56950    1.000
    C107     C        0.74800    0.25490    0.62750    1.000
    C108     C        0.69040    0.24820    0.64600    1.000
    C109     C        0.62480    0.18170    0.60710    1.000
    C110     C        0.88040    0.34410    0.66570    1.000
    C111     C        0.94230    0.42660    0.71810    1.000
    C112     C        0.01380    0.44130    0.74670    1.000
    C113     C        0.83410    0.37060    0.45930    1.000
    C114     C        0.76430    0.33380    0.45410    1.000
    C115     C        0.75200    0.37950    0.50690    1.000
    C116     C        0.80960    0.45560    0.55780    1.000
    C117     C        0.87520    0.48230    0.55690    1.000
    C118     C        0.61960    0.28530    0.46370    1.000
    C119     C        0.55770    0.27580    0.48430    1.000
    C120     C        0.48620    0.23290    0.42750    1.000
    C121     C        0.41130    0.37480    0.04070    1.000
    C122     C        0.37970    0.31020    0.04590    1.000
    C123     C        0.37260    0.24510    0.99310    1.000
    C124     C        0.39780    0.25180    0.94220    1.000
    C125     C        0.42540    0.31830    0.94310    1.000
    C126     C        0.32160    0.15590    0.03630    1.000
    C127     C        0.29150    0.07340    0.01570    1.000
    C128     C        0.30540    0.05870    0.07250    1.000
    C129     C        0.95930    0.83410    0.87060    1.000
    C130     C        0.95410    0.76430    0.83380    1.000
    C131     C        0.00690    0.75200    0.87950    1.000
    C132     C        0.05780    0.80960    0.95560    1.000
    C133     C        0.05690    0.87520    0.98230    1.000
    C134     C        0.96370    0.61960    0.78530    1.000
    C135     C        0.98430    0.55770    0.77580    1.000
    C136     C        0.92750    0.48620    0.73290    1.000
    C137     C        0.54070    0.41130    0.87480    1.000
    C138     C        0.54590    0.37970    0.81020    1.000
    C139     C        0.49310    0.37260    0.74510    1.000
    C140     C        0.44220    0.39780    0.75180    1.000
    C141     C        0.44310    0.42540    0.81830    1.000
    C142     C        0.53630    0.32160    0.65590    1.000
    C143     C        0.51570    0.29150    0.57340    1.000
    C144     C        0.57250    0.30540    0.55870    1.000
    C145     C        0.46350    0.08870    0.62940    1.000
    C146     C        0.43050    0.12030    0.66620    1.000
    C147     C        0.37250    0.12740    0.62050    1.000
    C148     C        0.35400    0.10220    0.54440    1.000
    C149     C        0.39290    0.07460    0.51770    1.000
    C150     C        0.33430    0.17840    0.71470    1.000
    C151     C        0.28190    0.20850    0.72420    1.000
    C152     C        0.25330    0.19460    0.76710    1.000
    C153     C        0.03650    0.66590    0.62520    1.000
    C154     C        0.06950    0.73570    0.68980    1.000
    C155     C        0.12750    0.74800    0.75490    1.000
    C156     C        0.14600    0.69040    0.74820    1.000
    C157     C        0.10710    0.62480    0.68170    1.000
    C158     C        0.16570    0.88040    0.84410    1.000
    C159     C        0.21810    0.94230    0.92660    1.000
    C160     C        0.24670    0.01380    0.94130    1.000
    C161     C        0.12520    0.03650    0.16590    1.000
    C162     C        0.18980    0.06950    0.23570    1.000
    C163     C        0.25490    0.12750    0.24800    1.000
    C164     C        0.24820    0.14600    0.19040    1.000
    C165     C        0.18170    0.10710    0.12480    1.000
    C166     C        0.34410    0.16570    0.38040    1.000
    C167     C        0.42660    0.21810    0.44230    1.000
    C168     C        0.44130    0.24670    0.51380    1.000
    C169     C        0.12940    0.46350    0.58870    1.000
    C170     C        0.16620    0.43050    0.62030    1.000
    C171     C        0.12050    0.37250    0.62740    1.000
    C172     C        0.04440    0.35400    0.60220    1.000
    C173     C        0.01770    0.39290    0.57460    1.000
    C174     C        0.21470    0.33430    0.67840    1.000
    C175     C        0.22420    0.28190    0.70850    1.000
    C176     C        0.26710    0.25330    0.69460    1.000
    C177     C        0.37480    0.54070    0.91130    1.000
    C178     C        0.31020    0.54590    0.87970    1.000
    C179     C        0.24510    0.49310    0.87260    1.000
    C180     C        0.25180    0.44220    0.89780    1.000
    C181     C        0.31830    0.44310    0.92540    1.000
    C182     C        0.15590    0.53630    0.82160    1.000
    C183     C        0.07340    0.51570    0.79150    1.000
    C184     C        0.05870    0.57250    0.80540    1.000
    C185     C        0.37060    0.95930    0.33410    1.000
    C186     C        0.33380    0.95410    0.26430    1.000
    C187     C        0.37950    0.00690    0.25200    1.000
    C188     C        0.45560    0.05780    0.30960    1.000
    C189     C        0.48230    0.05690    0.37520    1.000
    C190     C        0.28530    0.96370    0.11960    1.000
    C191     C        0.27580    0.98430    0.05770    1.000
    C192     C        0.23290    0.92750    0.98620    1.000
    N1       N        0.93500    0.94120    0.05260    1.000
    N2       N        0.84250    0.85310    0.16940    1.000
    N3       N        0.38860    0.88240    0.44740    1.000
    N4       N        0.18370    0.67310    0.33060    1.000
    N5       N        0.11140    0.55880    0.49380    1.000
    N6       N        0.31630    0.64690    0.48940    1.000
    N7       N        0.56500    0.61760    0.00620    1.000
    N8       N        0.65750    0.82690    0.01060    1.000
    N9       N        0.99380    0.11140    0.05880    1.000
    N10      N        0.98940    0.31630    0.14690    1.000
    N11      N        0.50620    0.56500    0.11760    1.000
    N12      N        0.51060    0.65750    0.32690    1.000
    N13      N        0.55260    0.93500    0.44120    1.000
    N14      N        0.66940    0.84250    0.35310    1.000
    N15      N        0.94740    0.38860    0.38240    1.000
    N16      N        0.83060    0.18370    0.17310    1.000
    N17      N        0.88240    0.94740    0.88860    1.000
    N18      N        0.67310    0.83060    0.68370    1.000
    N19      N        0.94120    0.55260    0.43500    1.000
    N20      N        0.85310    0.66940    0.34250    1.000
    N21      N        0.61760    0.50620    0.06500    1.000
    N22      N        0.82690    0.51060    0.15750    1.000
    N23      N        0.55880    0.99380    0.61140    1.000
    N24      N        0.64690    0.98940    0.81630    1.000
    N25      N        0.06500    0.05880    0.94740    1.000
    N26      N        0.15750    0.14690    0.83060    1.000
    N27      N        0.61140    0.11760    0.55260    1.000
    N28      N        0.81630    0.32690    0.66940    1.000
    N29      N        0.88860    0.44120    0.50620    1.000
    N30      N        0.68370    0.35310    0.51060    1.000
    N31      N        0.43500    0.38240    0.99380    1.000
    N32      N        0.34250    0.17310    0.98940    1.000
    N33      N        0.00620    0.88860    0.94120    1.000
    N34      N        0.01060    0.68370    0.85310    1.000
    N35      N        0.49380    0.43500    0.88240    1.000
    N36      N        0.48940    0.34250    0.67310    1.000
    N37      N        0.44740    0.06500    0.55880    1.000
    N38      N        0.33060    0.15750    0.64690    1.000
    N39      N        0.05260    0.61140    0.61760    1.000
    N40      N        0.16940    0.81630    0.82690    1.000
    N41      N        0.11760    0.05260    0.11140    1.000
    N42      N        0.32690    0.16940    0.31630    1.000
    N43      N        0.05880    0.44740    0.56500    1.000
    N44      N        0.14690    0.33060    0.65750    1.000
    N45      N        0.38240    0.49380    0.93500    1.000
    N46      N        0.17310    0.48940    0.84250    1.000
    N47      N        0.44120    0.00620    0.38860    1.000
    N48      N        0.35310    0.01060    0.18370    1.000
    O1       O        0.82540    0.73470    0.12250    1.000
    O2       O        0.11220    0.70290    0.37750    1.000
    O3       O        0.38780    0.76530    0.59070    1.000
    O4       O        0.67460    0.79710    0.90930    1.000
    O5       O        0.09070    0.38780    0.26530    1.000
    O6       O        0.40930    0.67460    0.29710    1.000
    O7       O        0.62250    0.82540    0.23470    1.000
    O8       O        0.87750    0.11220    0.20290    1.000
    O9       O        0.70290    0.87750    0.61220    1.000
    O10      O        0.73470    0.62250    0.32540    1.000
    O11      O        0.79710    0.40930    0.17460    1.000
    O12      O        0.76530    0.09070    0.88780    1.000
    O13      O        0.17460    0.26530    0.87750    1.000
    O14      O        0.88780    0.29710    0.62250    1.000
    O15      O        0.61220    0.23470    0.40930    1.000
    O16      O        0.32540    0.20290    0.09070    1.000
    O17      O        0.90930    0.61220    0.73470    1.000
    O18      O        0.59070    0.32540    0.70290    1.000
    O19      O        0.37750    0.17460    0.76530    1.000
    O20      O        0.12250    0.88780    0.79710    1.000
    O21      O        0.29710    0.12250    0.38780    1.000
    O22      O        0.26530    0.37750    0.67460    1.000
    O23      O        0.20290    0.59070    0.82540    1.000
    O24      O        0.23470    0.90930    0.11220    1.000
