# CIF file generated by openbabel 3.1.0, see https://openbabel.org
data_I
_chemical_name_common 'WOWHIZ_charged'
_cell_length_a 12.4122
_cell_length_b 13.937
_cell_length_c 24.949
_cell_angle_alpha 89.9546
_cell_angle_beta 89.898
_cell_angle_gamma 63.5578
_space_group_name_H-M_alt 'P 1'
_space_group_name_Hall 'P 1'
loop_
    _symmetry_equiv_pos_as_xyz
    x,y,z
loop_
    _atom_site_label
    _atom_site_type_symbol
    _atom_site_fract_x
    _atom_site_fract_y
    _atom_site_fract_z
    _atom_site_occupancy
    V1       V        0.88438    0.90864    0.17271    1.000
    V2       V        0.94778    0.80104    0.29691    1.000
    V3       V        0.66781    0.79598    0.30554    1.000
    V4       V        0.51669    0.73582    0.21318    1.000
    V5       V        0.59715    0.50230    0.15538    1.000
    V6       V        0.31337    0.50446    0.16136    1.000
    V7       V        0.19888    0.33624    0.13268    1.000
    V8       V        0.24108    0.19984    0.01965    1.000
    V9       V        0.96363    0.19694    0.01634    1.000
    V10      V        0.93830    0.10880    0.14980    1.000
    V11      V        0.79302    0.09136    0.67271    1.000
    V12      V        0.74882    0.19896    0.79691    1.000
    V13      V        0.46379    0.20402    0.80554    1.000
    V14      V        0.25251    0.26418    0.71318    1.000
    V15      V        0.09945    0.49770    0.65538    1.000
    V16      V        0.81783    0.49554    0.66136    1.000
    V17      V        0.53512    0.66376    0.63268    1.000
    V18      V        0.44092    0.80016    0.51965    1.000
    V19      V        0.16057    0.80306    0.51634    1.000
    V20      V        0.04710    0.89120    0.64980    1.000
    Co1      Co       0.18947    0.53410    0.29470    1.000
    Co2      Co       0.42280    0.06600    0.30095    1.000
    Co3      Co       0.48234    0.93926    0.03349    1.000
    Co4      Co       0.18850    0.53372    0.52630    1.000
    Co5      Co       0.79467    0.30826    0.24904    1.000
    Co6      Co       0.92657    0.04266    0.90950    1.000
    Co7      Co       0.09409    0.70922    0.07698    1.000
    Co8      Co       0.63028    0.64464    0.41565    1.000
    Co9      Co       0.72357    0.46590    0.79470    1.000
    Co10     Co       0.48880    0.93400    0.80095    1.000
    Co11     Co       0.42160    0.06074    0.53349    1.000
    Co12     Co       0.72222    0.46628    0.02630    1.000
    Co13     Co       0.10293    0.69174    0.74904    1.000
    Co14     Co       0.96923    0.95734    0.40950    1.000
    Co15     Co       0.80331    0.29078    0.57698    1.000
    Co16     Co       0.27492    0.35536    0.91565    1.000
    H1       H        0.92320    0.60320    0.24420    1.000
    H2       H        0.79830    0.52600    0.23620    1.000
    H3       H        0.05650    0.25100    0.28210    1.000
    H4       H        0.24150    0.96320    0.26200    1.000
    H5       H        0.07730    0.95640    0.29710    1.000
    H6       H        0.17860    0.00600    0.43920    1.000
    H7       H        0.21290    0.00980    0.08010    1.000
    H8       H        0.08710    0.93000    0.07930    1.000
    H9       H        0.35470    0.65240    0.05290    1.000
    H10      H        0.90950    0.63560    0.56540    1.000
    H11      H        0.73150    0.65620    0.52820    1.000
    H12      H        0.88550    0.60140    0.38570    1.000
    H13      H        0.55690    0.29960    0.19500    1.000
    H14      H        0.43010    0.23140    0.22440    1.000
    H15      H        0.66540    0.05800    0.32940    1.000
    H16      H        0.63560    0.15060    0.91430    1.000
    H17      H        0.49420    0.10820    0.95700    1.000
    H18      H        0.75110    0.87340    0.03020    1.000
    H19      H        0.56480    0.29560    0.62830    1.000
    H20      H        0.36300    0.37840    0.60920    1.000
    H21      H        0.42460    0.53820    0.49450    1.000
    H22      H        0.33680    0.76020    0.40320    1.000
    H23      H        0.20070    0.70540    0.36730    1.000
    H24      H        0.46480    0.46100    0.29880    1.000
    H25      H        0.52640    0.39680    0.74420    1.000
    H26      H        0.32430    0.47400    0.73620    1.000
    H27      H        0.30750    0.74900    0.78210    1.000
    H28      H        0.20470    0.03680    0.76200    1.000
    H29      H        0.03370    0.04360    0.79710    1.000
    H30      H        0.18460    0.99400    0.93920    1.000
    H31      H        0.22270    0.99020    0.58010    1.000
    H32      H        0.01710    0.07000    0.57930    1.000
    H33      H        0.00710    0.34760    0.55290    1.000
    H34      H        0.54510    0.36440    0.06540    1.000
    H35      H        0.38770    0.34380    0.02820    1.000
    H36      H        0.48690    0.39860    0.88570    1.000
    H37      H        0.85650    0.70040    0.69500    1.000
    H38      H        0.66150    0.76860    0.72440    1.000
    H39      H        0.72340    0.94200    0.82940    1.000
    H40      H        0.78620    0.84940    0.41430    1.000
    H41      H        0.60240    0.89180    0.45700    1.000
    H42      H        0.62450    0.12660    0.53020    1.000
    H43      H        0.86040    0.70440    0.12830    1.000
    H44      H        0.74140    0.62160    0.10920    1.000
    H45      H        0.96280    0.46180    0.99450    1.000
    H46      H        0.09700    0.23980    0.90320    1.000
    H47      H        0.90610    0.29460    0.86730    1.000
    H48      H        0.92580    0.53900    0.79880    1.000
    C1       C        0.95250    0.53060    0.25200    1.000
    C2       C        0.87750    0.48340    0.24640    1.000
    C3       C        0.02850    0.32300    0.27310    1.000
    C4       C        0.10320    0.37360    0.27810    1.000
    C5       C        0.23190    0.30900    0.29720    1.000
    C6       C        0.22630    0.97680    0.29850    1.000
    C7       C        0.13060    0.96780    0.31930    1.000
    C8       C        0.18950    0.99860    0.40230    1.000
    C9       C        0.28420    0.01200    0.37840    1.000
    C10      C        0.35950    0.05200    0.41020    1.000
    C11      C        0.24280    0.93720    0.07200    1.000
    C12      C        0.16910    0.88880    0.07370    1.000
    C13      C        0.32330    0.72640    0.05610    1.000
    C14      C        0.40060    0.77560    0.04810    1.000
    C15      C        0.52640    0.71920    0.02990    1.000
    C16      C        0.90720    0.62560    0.52870    1.000
    C17      C        0.79780    0.64100    0.50630    1.000
    C18      C        0.88820    0.60740    0.42270    1.000
    C19      C        0.99920    0.58820    0.44810    1.000
    C20      C        0.11310    0.54900    0.41630    1.000
    C21      C        0.57840    0.25420    0.22450    1.000
    C22      C        0.50440    0.20920    0.24100    1.000
    C23      C        0.63970    0.11060    0.30290    1.000
    C24      C        0.71140    0.16080    0.28910    1.000
    C25      C        0.83000    0.13200    0.31920    1.000
    C26      C        0.66180    0.09320    0.93800    1.000
    C27      C        0.57560    0.06700    0.96410    1.000
    C28      C        0.72440    0.93080    0.00650    1.000
    C29      C        0.80900    0.95560    0.98120    1.000
    C30      C        0.94350    0.88960    0.98940    1.000
    C31      C        0.53750    0.34560    0.60070    1.000
    C32      C        0.41590    0.39340    0.58840    1.000
    C33      C        0.45160    0.48680    0.52140    1.000
    C34      C        0.57180    0.43880    0.53470    1.000
    C35      C        0.66310    0.46180    0.50280    1.000
    C36      C        0.36410    0.69740    0.38340    1.000
    C37      C        0.28260    0.66540    0.36060    1.000
    C38      C        0.43760    0.52020    0.32130    1.000
    C39      C        0.52040    0.54720    0.34620    1.000
    C40      C        0.65700    0.47960    0.34070    1.000
    C41      C        0.48310    0.46940    0.75200    1.000
    C42      C        0.36090    0.51660    0.74640    1.000
    C43      C        0.35150    0.67700    0.77310    1.000
    C44      C        0.47680    0.62640    0.77810    1.000
    C45      C        0.54090    0.69100    0.79720    1.000
    C46      C        0.20310    0.02320    0.79850    1.000
    C47      C        0.09840    0.03220    0.81930    1.000
    C48      C        0.18810    0.00140    0.90230    1.000
    C49      C        0.29620    0.98800    0.87840    1.000
    C50      C        0.41150    0.94800    0.91020    1.000
    C51      C        0.18000    0.06280    0.57200    1.000
    C52      C        0.05790    0.11120    0.57370    1.000
    C53      C        0.04970    0.27360    0.55610    1.000
    C54      C        0.17620    0.22440    0.54810    1.000
    C55      C        0.24560    0.28080    0.52990    1.000
    C56      C        0.53280    0.37440    0.02870    1.000
    C57      C        0.43880    0.35900    0.00630    1.000
    C58      C        0.49560    0.39260    0.92270    1.000
    C59      C        0.58740    0.41180    0.94810    1.000
    C60      C        0.66210    0.45100    0.91630    1.000
    C61      C        0.83260    0.74580    0.72450    1.000
    C62      C        0.71360    0.79080    0.74100    1.000
    C63      C        0.75030    0.88940    0.80290    1.000
    C64      C        0.87220    0.83920    0.78910    1.000
    C65      C        0.96200    0.86800    0.81920    1.000
    C66      C        0.75500    0.90680    0.43800    1.000
    C67      C        0.64260    0.93300    0.46410    1.000
    C68      C        0.65520    0.06920    0.50650    1.000
    C69      C        0.76460    0.04440    0.48120    1.000
    C70      C        0.83310    0.11040    0.48940    1.000
    C71      C        0.88310    0.65440    0.10070    1.000
    C72      C        0.80930    0.60660    0.08840    1.000
    C73      C        0.93840    0.51320    0.02140    1.000
    C74      C        0.01060    0.56120    0.03470    1.000
    C75      C        0.12490    0.53820    0.00280    1.000
    C76      C        0.06150    0.30260    0.88340    1.000
    C77      C        0.94800    0.33460    0.86060    1.000
    C78      C        0.95780    0.47980    0.82130    1.000
    C79      C        0.06760    0.45280    0.84620    1.000
    C80      C        0.13660    0.52040    0.84070    1.000
    N1       N        0.06340    0.47760    0.26780    1.000
    N2       N        0.91120    0.38220    0.25450    1.000
    N3       N        0.30030    0.00380    0.32600    1.000
    N4       N        0.11400    0.97520    0.37240    1.000
    N5       N        0.36280    0.87820    0.05820    1.000
    N6       N        0.21390    0.77940    0.06740    1.000
    N7       N        0.00950    0.59720    0.50090    1.000
    N8       N        0.78840    0.63360    0.45180    1.000
    N9       N        0.68220    0.23280    0.25100    1.000
    N10      N        0.53390    0.13760    0.27830    1.000
    N11      N        0.77650    0.03780    0.94720    1.000
    N12      N        0.60800    0.98600    0.99810    1.000
    N13      N        0.61450    0.36840    0.57510    1.000
    N14      N        0.37370    0.46100    0.54650    1.000
    N15      N        0.48630    0.63400    0.37600    1.000
    N16      N        0.32000    0.57760    0.32900    1.000
    N17      N        0.54100    0.52240    0.76780    1.000
    N18      N        0.29340    0.61780    0.75450    1.000
    N19      N        0.30410    0.99620    0.82600    1.000
    N20      N        0.08920    0.02480    0.87240    1.000
    N21      N        0.24100    0.12180    0.55820    1.000
    N22      N        0.99330    0.22060    0.56740    1.000
    N23      N        0.60670    0.40280    0.00090    1.000
    N24      N        0.42200    0.36640    0.95180    1.000
    N25      N        0.91500    0.76720    0.75100    1.000
    N26      N        0.67150    0.86240    0.77830    1.000
    N27      N        0.81430    0.96220    0.44720    1.000
    N28      N        0.59400    0.01400    0.49810    1.000
    N29      N        0.98290    0.63160    0.07510    1.000
    N30      N        0.83470    0.53900    0.04650    1.000
    N31      N        0.12030    0.36600    0.87600    1.000
    N32      N        0.89760    0.42240    0.82900    1.000
    O1       O        0.28630    0.36660    0.30760    1.000
    O2       O        0.56000    0.92220    0.10860    1.000
    O3       O        0.26670    0.21420    0.30160    1.000
    O4       O        0.38790    0.05420    0.21980    1.000
    O5       O        0.42900    0.07720    0.38420    1.000
    O6       O        0.34980    0.04840    0.46030    1.000
    O7       O        0.58400    0.77160    0.02030    1.000
    O8       O        0.57070    0.61640    0.02520    1.000
    O9       O        0.20880    0.51800    0.44200    1.000
    O10      O        0.10170    0.55180    0.36590    1.000
    O11      O        0.88830    0.18080    0.30240    1.000
    O12      O        0.85500    0.06800    0.35580    1.000
    O13      O        0.01280    0.91880    0.96470    1.000
    O14      O        0.97370    0.81180    0.01880    1.000
    O15      O        0.77170    0.40720    0.51630    1.000
    O16      O        0.62360    0.52860    0.46660    1.000
    O17      O        0.71960    0.51840    0.36010    1.000
    O18      O        0.69340    0.39080    0.31850    1.000
    O19      O        0.99660    0.81640    0.13880    1.000
    O20      O        0.76410    0.89440    0.16330    1.000
    O21      O        0.91950    0.89660    0.24200    1.000
    O22      O        0.84740    0.04180    0.15230    1.000
    O23      O        0.82490    0.15400    0.85230    1.000
    O24      O        0.06660    0.68960    0.27820    1.000
    O25      O        0.82080    0.77420    0.30420    1.000
    O26      O        0.64190    0.75380    0.36350    1.000
    O27      O        0.57130    0.92520    0.30090    1.000
    O28      O        0.64050    0.72380    0.25390    1.000
    O29      O        0.44770    0.85540    0.18460    1.000
    O30      O        0.41940    0.71840    0.25170    1.000
    O31      O        0.57190    0.63840    0.15910    1.000
    O32      O        0.66510    0.43860    0.20930    1.000
    O33      O        0.68440    0.45000    0.10360    1.000
    O34      O        0.45990    0.49140    0.14700    1.000
    O35      O        0.28610    0.51480    0.22620    1.000
    O36      O        0.20880    0.61560    0.13040    1.000
    O37      O        0.30850    0.38760    0.13690    1.000
    O38      O        0.24430    0.22680    0.16810    1.000
    O39      O        0.06630    0.42260    0.15030    1.000
    O40      O        0.19780    0.30700    0.06180    1.000
    O41      O        0.28710    0.23120    0.96210    1.000
    O42      O        0.35390    0.09540    0.04710    1.000
    O43      O        0.11750    0.17120    0.00860    1.000
    O44      O        0.87460    0.32600    0.02290    1.000
    O45      O        0.92290    0.15100    0.96190    1.000
    O46      O        0.95040    0.12700    0.07480    1.000
    O47      O        0.87800    0.22140    0.18180    1.000
    O48      O        0.06750    0.01880    0.17890    1.000
    O49      O        0.65290    0.63340    0.80760    1.000
    O50      O        0.48220    0.07780    0.60860    1.000
    O51      O        0.48090    0.78580    0.80160    1.000
    O52      O        0.44210    0.94580    0.71980    1.000
    O53      O        0.50620    0.92280    0.88420    1.000
    O54      O        0.39820    0.95160    0.96030    1.000
    O55      O        0.35560    0.22840    0.52030    1.000
    O56      O        0.18710    0.38360    0.52520    1.000
    O57      O        0.72680    0.48200    0.94200    1.000
    O58      O        0.65350    0.44820    0.86590    1.000
    O59      O        0.06910    0.81920    0.80240    1.000
    O60      O        0.92300    0.93200    0.85580    1.000
    O61      O        0.93160    0.08120    0.46470    1.000
    O62      O        0.78550    0.18820    0.51880    1.000
    O63      O        0.17890    0.59280    0.01630    1.000
    O64      O        0.15220    0.47140    0.96660    1.000
    O65      O        0.23800    0.48160    0.86010    1.000
    O66      O        0.08420    0.60920    0.81850    1.000
    O67      O        0.81300    0.18360    0.63880    1.000
    O68      O        0.65850    0.10560    0.66330    1.000
    O69      O        0.81610    0.10340    0.74200    1.000
    O70      O        0.88920    0.95820    0.65230    1.000
    O71      O        0.97890    0.84600    0.35230    1.000
    O72      O        0.75620    0.31040    0.77820    1.000
    O73      O        0.59500    0.22580    0.80420    1.000
    O74      O        0.39570    0.24620    0.86350    1.000
    O75      O        0.49650    0.07480    0.80090    1.000
    O76      O        0.36430    0.27620    0.75390    1.000
    O77      O        0.30310    0.14460    0.68460    1.000
    O78      O        0.13780    0.28160    0.75170    1.000
    O79      O        0.21030    0.36160    0.65910    1.000
    O80      O        0.10370    0.56140    0.70930    1.000
    O81      O        0.13440    0.55000    0.60360    1.000
    O82      O        0.95130    0.50860    0.64700    1.000
    O83      O        0.80090    0.48520    0.72620    1.000
    O84      O        0.82440    0.38440    0.63040    1.000
    O85      O        0.69610    0.61240    0.63690    1.000
    O86      O        0.47110    0.77320    0.66810    1.000
    O87      O        0.48890    0.57740    0.65030    1.000
    O88      O        0.50480    0.69300    0.56180    1.000
    O89      O        0.51830    0.76880    0.46210    1.000
    O90      O        0.44930    0.90460    0.54710    1.000
    O91      O        0.28870    0.82880    0.50860    1.000
    O92      O        0.20060    0.67400    0.52290    1.000
    O93      O        0.07390    0.84900    0.46190    1.000
    O94      O        0.07740    0.87300    0.57480    1.000
    O95      O        0.09940    0.77860    0.68180    1.000
    O96      O        0.08630    0.98120    0.67890    1.000
