# CIF file generated by openbabel 3.1.0, see https://openbabel.org
data_I
_chemical_name_common 'ESUMOU_clean'
_cell_length_a 6.9643
_cell_length_b 9.9724
_cell_length_c 11.1951
_cell_angle_alpha 90
_cell_angle_beta 90
_cell_angle_gamma 90
_space_group_name_H-M_alt 'P 1'
_space_group_name_Hall 'P 1'
loop_
    _symmetry_equiv_pos_as_xyz
    x,y,z
loop_
    _atom_site_label
    _atom_site_type_symbol
    _atom_site_fract_x
    _atom_site_fract_y
    _atom_site_fract_z
    _atom_site_occupancy
    Mn1      Mn       0.12570    0.20269    0.21081    1.000
    Mn2      Mn       0.37430    0.79731    0.71081    1.000
    Mn3      Mn       0.87430    0.70269    0.28919    1.000
    Mn4      Mn       0.62570    0.29731    0.78919    1.000
    H1       H        0.45900    0.90000    0.19900    1.000
    H2       H        0.34800    0.90900    0.07400    1.000
    H3       H        0.61900    0.12600    0.07700    1.000
    H4       H        0.47200    0.08800    0.98900    1.000
    H5       H        0.04100    0.10000    0.69900    1.000
    H6       H        0.15200    0.09100    0.57400    1.000
    H7       H        0.88100    0.87400    0.57700    1.000
    H8       H        0.02800    0.91200    0.48900    1.000
    H9       H        0.54100    0.40000    0.30100    1.000
    H10      H        0.65200    0.40900    0.42600    1.000
    H11      H        0.38100    0.62600    0.42300    1.000
    H12      H        0.52800    0.58800    0.51100    1.000
    H13      H        0.95900    0.60000    0.80100    1.000
    H14      H        0.84800    0.59100    0.92600    1.000
    H15      H        0.11900    0.37400    0.92300    1.000
    H16      H        0.97200    0.41200    0.01100    1.000
    C1       C        0.17110    0.90350    0.22080    1.000
    C2       C        0.35520    0.93930    0.15560    1.000
    C3       C        0.49370    0.13450    0.06470    1.000
    C4       C        0.44830    0.28200    0.05320    1.000
    C5       C        0.32890    0.09650    0.72080    1.000
    C6       C        0.14480    0.06070    0.65560    1.000
    C7       C        0.00630    0.86550    0.56470    1.000
    C8       C        0.05170    0.71800    0.55320    1.000
    C9       C        0.82890    0.40350    0.27920    1.000
    C10      C        0.64480    0.43930    0.34440    1.000
    C11      C        0.50630    0.63450    0.43530    1.000
    C12      C        0.55170    0.78200    0.44680    1.000
    C13      C        0.67110    0.59650    0.77920    1.000
    C14      C        0.85520    0.56070    0.84440    1.000
    C15      C        0.99370    0.36550    0.93530    1.000
    C16      C        0.94830    0.21800    0.94680    1.000
    O1       O        0.06330    0.99230    0.25830    1.000
    O2       O        0.33710    0.33560    0.12660    1.000
    O3       O        0.38090    0.08080    0.15902    1.000
    O4       O        0.14210    0.77880    0.23170    1.000
    O5       O        0.52810    0.34500    0.96950    1.000
    O6       O        0.43670    0.00770    0.75830    1.000
    O7       O        0.16290    0.66440    0.62660    1.000
    O8       O        0.11910    0.91920    0.65902    1.000
    O9       O        0.35790    0.22120    0.73170    1.000
    O10      O        0.97190    0.65500    0.46950    1.000
    O11      O        0.93670    0.49230    0.24170    1.000
    O12      O        0.66290    0.83560    0.37340    1.000
    O13      O        0.61910    0.58080    0.34098    1.000
    O14      O        0.85790    0.27880    0.26830    1.000
    O15      O        0.47190    0.84500    0.53050    1.000
    O16      O        0.56330    0.50770    0.74170    1.000
    O17      O        0.83710    0.16440    0.87340    1.000
    O18      O        0.88090    0.41920    0.84098    1.000
    O19      O        0.64210    0.72120    0.76830    1.000
    O20      O        0.02810    0.15500    0.03050    1.000
