# CIF file generated by openbabel 3.1.0, see https://openbabel.org
data_I
_chemical_name_common 'image0'
_cell_length_a 22.87
_cell_length_b 34.647
_cell_length_c 9.535
_cell_angle_alpha 90
_cell_angle_beta 90
_cell_angle_gamma 90
_space_group_name_H-M_alt 'P 1'
_space_group_name_Hall 'P 1'
loop_
    _symmetry_equiv_pos_as_xyz
    x,y,z
loop_
    _atom_site_label
    _atom_site_type_symbol
    _atom_site_fract_x
    _atom_site_fract_y
    _atom_site_fract_z
    _atom_site_occupancy
    Ag1      Ag       0.32282    0.12520    0.63884    1.000
    Ag2      Ag       0.44127    0.14111    0.96205    1.000
    N1       N        0.49725    0.06394    0.70310    1.000
    N2       N        0.53247    0.09694    0.70360    1.000
    N3       N        0.50978    0.08443    0.49040    1.000
    N4       N        0.50591    0.08803    0.34520    1.000
    N5       N        0.48314    0.11088    0.14320    1.000
    N6       N        0.51594    0.07759    0.12210    1.000
    N7       N        0.32210    0.93627    0.05210    1.000
    N8       N        0.35689    0.92670    0.93720    1.000
    N9       N        0.34546    0.98848    0.94230    1.000
    N10      N        0.35111    0.02693    0.90640    1.000
    N11      N        0.38347    0.08539    0.89810    1.000
    N12      N        0.33940    0.08084    0.79710    1.000
    C1       C        0.53980    0.10772    0.57650    1.000
    H1       H        0.56250    0.12860    0.54810    1.000
    C2       C        0.48386    0.05727    0.57310    1.000
    H2       H        0.46030    0.03720    0.54140    1.000
    C3       C        0.47744    0.11662    0.27690    1.000
    H3       H        0.45730    0.13690    0.31860    1.000
    C4       C        0.52891    0.06473    0.24640    1.000
    H4       H        0.55080    0.04270    0.26450    1.000
    C5       C        0.31530    0.97347    0.05270    1.000
    H5       H        0.29350    0.98750    0.11750    1.000
    C6       C        0.36996    0.95853    0.87440    1.000
    H6       H        0.39290    0.96050    0.79420    1.000
    C7       C        0.38918    0.05279    0.96090    1.000
    H7       H        0.41550    0.04770    0.03290    1.000
    C8       C        0.32092    0.04582    0.80530    1.000
    H8       H        0.29150    0.03520    0.75040    1.000
    Ag3      Ag       0.32282    0.62520    0.13884    1.000
    Ag4      Ag       0.44127    0.64111    0.46205    1.000
    N13      N        0.49725    0.56394    0.20310    1.000
    N14      N        0.53247    0.59694    0.20360    1.000
    N15      N        0.50978    0.58443    0.99040    1.000
    N16      N        0.50591    0.58803    0.84520    1.000
    N17      N        0.48314    0.61088    0.64320    1.000
    N18      N        0.51594    0.57759    0.62210    1.000
    N19      N        0.32210    0.43627    0.55210    1.000
    N20      N        0.35689    0.42670    0.43720    1.000
    N21      N        0.34546    0.48848    0.44230    1.000
    N22      N        0.35111    0.52693    0.40640    1.000
    N23      N        0.38347    0.58539    0.39810    1.000
    N24      N        0.33940    0.58084    0.29710    1.000
    C9       C        0.53980    0.60772    0.07650    1.000
    H9       H        0.56250    0.62860    0.04810    1.000
    C10      C        0.48386    0.55727    0.07310    1.000
    H10      H        0.46030    0.53720    0.04140    1.000
    C11      C        0.47744    0.61662    0.77690    1.000
    H11      H        0.45730    0.63690    0.81860    1.000
    C12      C        0.52891    0.56473    0.74640    1.000
    H12      H        0.55080    0.54270    0.76450    1.000
    C13      C        0.31530    0.47347    0.55270    1.000
    H13      H        0.29350    0.48750    0.61750    1.000
    C14      C        0.36996    0.45853    0.37440    1.000
    H14      H        0.39290    0.46050    0.29420    1.000
    C15      C        0.38918    0.55279    0.46090    1.000
    H15      H        0.41550    0.54770    0.53290    1.000
    C16      C        0.32092    0.54582    0.30530    1.000
    H16      H        0.29150    0.53520    0.25040    1.000
    Ag5      Ag       0.82282    0.12520    0.13884    1.000
    Ag6      Ag       0.94127    0.14111    0.46205    1.000
    N25      N        0.99725    0.06394    0.20310    1.000
    N26      N        0.03247    0.09694    0.20360    1.000
    N27      N        0.00978    0.08443    0.99040    1.000
    N28      N        0.00591    0.08803    0.84520    1.000
    N29      N        0.98314    0.11088    0.64320    1.000
    N30      N        0.01594    0.07759    0.62210    1.000
    N31      N        0.82210    0.93627    0.55210    1.000
    N32      N        0.85689    0.92670    0.43720    1.000
    N33      N        0.84546    0.98848    0.44230    1.000
    N34      N        0.85111    0.02693    0.40640    1.000
    N35      N        0.88347    0.08539    0.39810    1.000
    N36      N        0.83940    0.08084    0.29710    1.000
    C17      C        0.03980    0.10772    0.07650    1.000
    H17      H        0.06250    0.12860    0.04810    1.000
    C18      C        0.98386    0.05727    0.07310    1.000
    H18      H        0.96030    0.03720    0.04140    1.000
    C19      C        0.97744    0.11662    0.77690    1.000
    H19      H        0.95730    0.13690    0.81860    1.000
    C20      C        0.02891    0.06473    0.74640    1.000
    H20      H        0.05080    0.04270    0.76450    1.000
    C21      C        0.81530    0.97347    0.55270    1.000
    H21      H        0.79350    0.98750    0.61750    1.000
    C22      C        0.86996    0.95853    0.37440    1.000
    H22      H        0.89290    0.96050    0.29420    1.000
    C23      C        0.88918    0.05279    0.46090    1.000
    H23      H        0.91550    0.04770    0.53290    1.000
    C24      C        0.82092    0.04582    0.30530    1.000
    H24      H        0.79150    0.03520    0.25040    1.000
    Ag7      Ag       0.82282    0.62520    0.63884    1.000
    Ag8      Ag       0.94127    0.64111    0.96205    1.000
    N37      N        0.99725    0.56394    0.70310    1.000
    N38      N        0.03247    0.59694    0.70360    1.000
    N39      N        0.00978    0.58443    0.49040    1.000
    N40      N        0.00591    0.58803    0.34520    1.000
    N41      N        0.98314    0.61088    0.14320    1.000
    N42      N        0.01594    0.57759    0.12210    1.000
    N43      N        0.82210    0.43627    0.05210    1.000
    N44      N        0.85689    0.42670    0.93720    1.000
    N45      N        0.84546    0.48848    0.94230    1.000
    N46      N        0.85111    0.52693    0.90640    1.000
    N47      N        0.88347    0.58539    0.89810    1.000
    N48      N        0.83940    0.58084    0.79710    1.000
    C25      C        0.03980    0.60772    0.57650    1.000
    H25      H        0.06250    0.62860    0.54810    1.000
    C26      C        0.98386    0.55727    0.57310    1.000
    H26      H        0.96030    0.53720    0.54140    1.000
    C27      C        0.97744    0.61662    0.27690    1.000
    H27      H        0.95730    0.63690    0.31860    1.000
    C28      C        0.02891    0.56473    0.24640    1.000
    H28      H        0.05080    0.54270    0.26450    1.000
    C29      C        0.81530    0.47347    0.05270    1.000
    H29      H        0.79350    0.48750    0.11750    1.000
    C30      C        0.86996    0.45853    0.87440    1.000
    H30      H        0.89290    0.46050    0.79420    1.000
    C31      C        0.88918    0.55279    0.96090    1.000
    H31      H        0.91550    0.54770    0.03290    1.000
    C32      C        0.82092    0.54582    0.80530    1.000
    H32      H        0.79150    0.53520    0.75040    1.000
    Ag9      Ag       0.67718    0.87480    0.63884    1.000
    Ag10     Ag       0.55873    0.85889    0.96205    1.000
    N49      N        0.50275    0.93606    0.70310    1.000
    N50      N        0.46753    0.90306    0.70360    1.000
    N51      N        0.49022    0.91557    0.49040    1.000
    N52      N        0.49409    0.91197    0.34520    1.000
    N53      N        0.51686    0.88912    0.14320    1.000
    N54      N        0.48406    0.92241    0.12210    1.000
    N55      N        0.67790    0.06373    0.05210    1.000
    N56      N        0.64311    0.07330    0.93720    1.000
    N57      N        0.65454    0.01152    0.94230    1.000
    N58      N        0.64889    0.97307    0.90640    1.000
    N59      N        0.61653    0.91461    0.89810    1.000
    N60      N        0.66060    0.91916    0.79710    1.000
    C33      C        0.46020    0.89228    0.57650    1.000
    H33      H        0.43750    0.87140    0.54810    1.000
    C34      C        0.51614    0.94273    0.57310    1.000
    H34      H        0.53970    0.96280    0.54140    1.000
    C35      C        0.52256    0.88338    0.27690    1.000
    H35      H        0.54270    0.86310    0.31860    1.000
    C36      C        0.47109    0.93527    0.24640    1.000
    H36      H        0.44920    0.95730    0.26450    1.000
    C37      C        0.68470    0.02653    0.05270    1.000
    H37      H        0.70650    0.01250    0.11750    1.000
    C38      C        0.63004    0.04147    0.87440    1.000
    H38      H        0.60710    0.03950    0.79420    1.000
    C39      C        0.61082    0.94721    0.96090    1.000
    H39      H        0.58450    0.95230    0.03290    1.000
    C40      C        0.67908    0.95418    0.80530    1.000
    H40      H        0.70850    0.96480    0.75040    1.000
    Ag11     Ag       0.67718    0.37480    0.13884    1.000
    Ag12     Ag       0.55873    0.35889    0.46205    1.000
    N61      N        0.50275    0.43606    0.20310    1.000
    N62      N        0.46753    0.40306    0.20360    1.000
    N63      N        0.49022    0.41557    0.99040    1.000
    N64      N        0.49409    0.41197    0.84520    1.000
    N65      N        0.51686    0.38912    0.64320    1.000
    N66      N        0.48406    0.42241    0.62210    1.000
    N67      N        0.67790    0.56373    0.55210    1.000
    N68      N        0.64311    0.57330    0.43720    1.000
    N69      N        0.65454    0.51152    0.44230    1.000
    N70      N        0.64889    0.47307    0.40640    1.000
    N71      N        0.61653    0.41461    0.39810    1.000
    N72      N        0.66060    0.41916    0.29710    1.000
    C41      C        0.46020    0.39228    0.07650    1.000
    H41      H        0.43750    0.37140    0.04810    1.000
    C42      C        0.51614    0.44273    0.07310    1.000
    H42      H        0.53970    0.46280    0.04140    1.000
    C43      C        0.52256    0.38338    0.77690    1.000
    H43      H        0.54270    0.36310    0.81860    1.000
    C44      C        0.47109    0.43527    0.74640    1.000
    H44      H        0.44920    0.45730    0.76450    1.000
    C45      C        0.68470    0.52653    0.55270    1.000
    H45      H        0.70650    0.51250    0.61750    1.000
    C46      C        0.63004    0.54147    0.37440    1.000
    H46      H        0.60710    0.53950    0.29420    1.000
    C47      C        0.61082    0.44721    0.46090    1.000
    H47      H        0.58450    0.45230    0.53290    1.000
    C48      C        0.67908    0.45418    0.30530    1.000
    H48      H        0.70850    0.46480    0.25040    1.000
    Ag13     Ag       0.17718    0.87480    0.13884    1.000
    Ag14     Ag       0.05873    0.85889    0.46205    1.000
    N73      N        0.00275    0.93606    0.20310    1.000
    N74      N        0.96753    0.90306    0.20360    1.000
    N75      N        0.99022    0.91557    0.99040    1.000
    N76      N        0.99409    0.91197    0.84520    1.000
    N77      N        0.01686    0.88912    0.64320    1.000
    N78      N        0.98406    0.92241    0.62210    1.000
    N79      N        0.17790    0.06373    0.55210    1.000
    N80      N        0.14311    0.07330    0.43720    1.000
    N81      N        0.15454    0.01152    0.44230    1.000
    N82      N        0.14889    0.97307    0.40640    1.000
    N83      N        0.11653    0.91461    0.39810    1.000
    N84      N        0.16060    0.91916    0.29710    1.000
    C49      C        0.96020    0.89228    0.07650    1.000
    H49      H        0.93750    0.87140    0.04810    1.000
    C50      C        0.01614    0.94273    0.07310    1.000
    H50      H        0.03970    0.96280    0.04140    1.000
    C51      C        0.02256    0.88338    0.77690    1.000
    H51      H        0.04270    0.86310    0.81860    1.000
    C52      C        0.97109    0.93527    0.74640    1.000
    H52      H        0.94920    0.95730    0.76450    1.000
    C53      C        0.18470    0.02653    0.55270    1.000
    H53      H        0.20650    0.01250    0.61750    1.000
    C54      C        0.13004    0.04147    0.37440    1.000
    H54      H        0.10710    0.03950    0.29420    1.000
    C55      C        0.11082    0.94721    0.46090    1.000
    H55      H        0.08450    0.95230    0.53290    1.000
    C56      C        0.17908    0.95418    0.30530    1.000
    H56      H        0.20850    0.96480    0.25040    1.000
    Ag15     Ag       0.17718    0.37480    0.63884    1.000
    Ag16     Ag       0.05873    0.35889    0.96205    1.000
    N85      N        0.00275    0.43606    0.70310    1.000
    N86      N        0.96753    0.40306    0.70360    1.000
    N87      N        0.99022    0.41557    0.49040    1.000
    N88      N        0.99409    0.41197    0.34520    1.000
    N89      N        0.01686    0.38912    0.14320    1.000
    N90      N        0.98406    0.42241    0.12210    1.000
    N91      N        0.17790    0.56373    0.05210    1.000
    N92      N        0.14311    0.57330    0.93720    1.000
    N93      N        0.15454    0.51152    0.94230    1.000
    N94      N        0.14889    0.47307    0.90640    1.000
    N95      N        0.11653    0.41461    0.89810    1.000
    N96      N        0.16060    0.41916    0.79710    1.000
    C57      C        0.96020    0.39228    0.57650    1.000
    H57      H        0.93750    0.37140    0.54810    1.000
    C58      C        0.01614    0.44273    0.57310    1.000
    H58      H        0.03970    0.46280    0.54140    1.000
    C59      C        0.02256    0.38338    0.27690    1.000
    H59      H        0.04270    0.36310    0.31860    1.000
    C60      C        0.97109    0.43527    0.24640    1.000
    H60      H        0.94920    0.45730    0.26450    1.000
    C61      C        0.18470    0.52653    0.05270    1.000
    H61      H        0.20650    0.51250    0.11750    1.000
    C62      C        0.13004    0.54147    0.87440    1.000
    H62      H        0.10710    0.53950    0.79420    1.000
    C63      C        0.11082    0.44721    0.96090    1.000
    H63      H        0.08450    0.45230    0.03290    1.000
    C64      C        0.17908    0.45418    0.80530    1.000
    H64      H        0.20850    0.46480    0.75040    1.000
    Ag17     Ag       0.57282    0.12480    0.88884    1.000
    Ag18     Ag       0.69127    0.10889    0.21205    1.000
    N97      N        0.74725    0.18606    0.95310    1.000
    N98      N        0.78247    0.15306    0.95360    1.000
    N99      N        0.75978    0.16557    0.74040    1.000
    N100     N        0.75591    0.16197    0.59520    1.000
    N101     N        0.73314    0.13912    0.39320    1.000
    N102     N        0.76594    0.17241    0.37210    1.000
    N103     N        0.57210    0.31373    0.30210    1.000
    N104     N        0.60689    0.32330    0.18720    1.000
    N105     N        0.59546    0.26152    0.19230    1.000
    N106     N        0.60111    0.22307    0.15640    1.000
    N107     N        0.63347    0.16461    0.14810    1.000
    N108     N        0.58940    0.16916    0.04710    1.000
    C65      C        0.78980    0.14228    0.82650    1.000
    H65      H        0.81250    0.12140    0.79810    1.000
    C66      C        0.73386    0.19273    0.82310    1.000
    H66      H        0.71030    0.21280    0.79140    1.000
    C67      C        0.72744    0.13338    0.52690    1.000
    H67      H        0.70730    0.11310    0.56860    1.000
    C68      C        0.77891    0.18527    0.49640    1.000
    H68      H        0.80080    0.20730    0.51450    1.000
    C69      C        0.56530    0.27653    0.30270    1.000
    H69      H        0.54350    0.26250    0.36750    1.000
    C70      C        0.61996    0.29147    0.12440    1.000
    H70      H        0.64290    0.28950    0.04420    1.000
    C71      C        0.63918    0.19721    0.21090    1.000
    H71      H        0.66550    0.20230    0.28290    1.000
    C72      C        0.57092    0.20418    0.05530    1.000
    H72      H        0.54150    0.21480    0.00040    1.000
    Ag19     Ag       0.57282    0.62480    0.38884    1.000
    Ag20     Ag       0.69127    0.60890    0.71205    1.000
    N109     N        0.74725    0.68606    0.45310    1.000
    N110     N        0.78247    0.65306    0.45360    1.000
    N111     N        0.75978    0.66557    0.24040    1.000
    N112     N        0.75591    0.66197    0.09520    1.000
    N113     N        0.73314    0.63912    0.89320    1.000
    N114     N        0.76594    0.67241    0.87210    1.000
    N115     N        0.57210    0.81373    0.80210    1.000
    N116     N        0.60689    0.82330    0.68720    1.000
    N117     N        0.59546    0.76152    0.69230    1.000
    N118     N        0.60111    0.72307    0.65640    1.000
    N119     N        0.63347    0.66461    0.64810    1.000
    N120     N        0.58940    0.66916    0.54710    1.000
    C73      C        0.78980    0.64228    0.32650    1.000
    H73      H        0.81250    0.62140    0.29810    1.000
    C74      C        0.73386    0.69273    0.32310    1.000
    H74      H        0.71030    0.71280    0.29140    1.000
    C75      C        0.72744    0.63338    0.02690    1.000
    H75      H        0.70730    0.61310    0.06860    1.000
    C76      C        0.77891    0.68527    0.99640    1.000
    H76      H        0.80080    0.70730    0.01450    1.000
    C77      C        0.56530    0.77653    0.80270    1.000
    H77      H        0.54350    0.76250    0.86750    1.000
    C78      C        0.61996    0.79147    0.62440    1.000
    H78      H        0.64290    0.78950    0.54420    1.000
    C79      C        0.63918    0.69721    0.71090    1.000
    H79      H        0.66550    0.70230    0.78290    1.000
    C80      C        0.57092    0.70418    0.55530    1.000
    H80      H        0.54150    0.71480    0.50040    1.000
    Ag21     Ag       0.07282    0.12480    0.38884    1.000
    Ag22     Ag       0.19127    0.10889    0.71205    1.000
    N121     N        0.24725    0.18606    0.45310    1.000
    N122     N        0.28247    0.15306    0.45360    1.000
    N123     N        0.25978    0.16557    0.24040    1.000
    N124     N        0.25591    0.16197    0.09520    1.000
    N125     N        0.23314    0.13912    0.89320    1.000
    N126     N        0.26594    0.17241    0.87210    1.000
    N127     N        0.07210    0.31373    0.80210    1.000
    N128     N        0.10689    0.32330    0.68720    1.000
    N129     N        0.09546    0.26152    0.69230    1.000
    N130     N        0.10111    0.22307    0.65640    1.000
    N131     N        0.13347    0.16461    0.64810    1.000
    N132     N        0.08940    0.16916    0.54710    1.000
    C81      C        0.28980    0.14228    0.32650    1.000
    H81      H        0.31250    0.12140    0.29810    1.000
    C82      C        0.23386    0.19273    0.32310    1.000
    H82      H        0.21030    0.21280    0.29140    1.000
    C83      C        0.22744    0.13338    0.02690    1.000
    H83      H        0.20730    0.11310    0.06860    1.000
    C84      C        0.27891    0.18527    0.99640    1.000
    H84      H        0.30080    0.20730    0.01450    1.000
    C85      C        0.06530    0.27653    0.80270    1.000
    H85      H        0.04350    0.26250    0.86750    1.000
    C86      C        0.11996    0.29147    0.62440    1.000
    H86      H        0.14290    0.28950    0.54420    1.000
    C87      C        0.13918    0.19721    0.71090    1.000
    H87      H        0.16550    0.20230    0.78290    1.000
    C88      C        0.07092    0.20418    0.55530    1.000
    H88      H        0.04150    0.21480    0.50040    1.000
    Ag23     Ag       0.07282    0.62480    0.88884    1.000
    Ag24     Ag       0.19127    0.60890    0.21205    1.000
    N133     N        0.24725    0.68606    0.95310    1.000
    N134     N        0.28247    0.65306    0.95360    1.000
    N135     N        0.25978    0.66557    0.74040    1.000
    N136     N        0.25591    0.66197    0.59520    1.000
    N137     N        0.23314    0.63912    0.39320    1.000
    N138     N        0.26594    0.67241    0.37210    1.000
    N139     N        0.07210    0.81373    0.30210    1.000
    N140     N        0.10689    0.82330    0.18720    1.000
    N141     N        0.09546    0.76152    0.19230    1.000
    N142     N        0.10111    0.72307    0.15640    1.000
    N143     N        0.13347    0.66461    0.14810    1.000
    N144     N        0.08940    0.66916    0.04710    1.000
    C89      C        0.28980    0.64228    0.82650    1.000
    H89      H        0.31250    0.62140    0.79810    1.000
    C90      C        0.23386    0.69273    0.82310    1.000
    H90      H        0.21030    0.71280    0.79140    1.000
    C91      C        0.22744    0.63338    0.52690    1.000
    H91      H        0.20730    0.61310    0.56860    1.000
    C92      C        0.27891    0.68527    0.49640    1.000
    H92      H        0.30080    0.70730    0.51450    1.000
    C93      C        0.06530    0.77653    0.30270    1.000
    H93      H        0.04350    0.76250    0.36750    1.000
    C94      C        0.11996    0.79147    0.12440    1.000
    H94      H        0.14290    0.78950    0.04420    1.000
    C95      C        0.13918    0.69721    0.21090    1.000
    H95      H        0.16550    0.70230    0.28290    1.000
    C96      C        0.07092    0.70418    0.05530    1.000
    H96      H        0.04150    0.71480    0.00040    1.000
    Ag25     Ag       0.92718    0.37520    0.88884    1.000
    Ag26     Ag       0.80873    0.39111    0.21205    1.000
    N145     N        0.75275    0.31394    0.95310    1.000
    N146     N        0.71753    0.34694    0.95360    1.000
    N147     N        0.74022    0.33443    0.74040    1.000
    N148     N        0.74409    0.33803    0.59520    1.000
    N149     N        0.76686    0.36088    0.39320    1.000
    N150     N        0.73406    0.32759    0.37210    1.000
    N151     N        0.92790    0.18627    0.30210    1.000
    N152     N        0.89311    0.17670    0.18720    1.000
    N153     N        0.90454    0.23848    0.19230    1.000
    N154     N        0.89889    0.27693    0.15640    1.000
    N155     N        0.86653    0.33539    0.14810    1.000
    N156     N        0.91060    0.33084    0.04710    1.000
    C97      C        0.71020    0.35772    0.82650    1.000
    H97      H        0.68750    0.37860    0.79810    1.000
    C98      C        0.76614    0.30727    0.82310    1.000
    H98      H        0.78970    0.28720    0.79140    1.000
    C99      C        0.77256    0.36662    0.52690    1.000
    H99      H        0.79270    0.38690    0.56860    1.000
    C100     C        0.72109    0.31473    0.49640    1.000
    H100     H        0.69920    0.29270    0.51450    1.000
    C101     C        0.93470    0.22347    0.30270    1.000
    H101     H        0.95650    0.23750    0.36750    1.000
    C102     C        0.88004    0.20853    0.12440    1.000
    H102     H        0.85710    0.21050    0.04420    1.000
    C103     C        0.86082    0.30279    0.21090    1.000
    H103     H        0.83450    0.29770    0.28290    1.000
    C104     C        0.92908    0.29582    0.05530    1.000
    H104     H        0.95850    0.28520    0.00040    1.000
    Ag27     Ag       0.92718    0.87520    0.38884    1.000
    Ag28     Ag       0.80873    0.89111    0.71205    1.000
    N157     N        0.75275    0.81394    0.45310    1.000
    N158     N        0.71753    0.84694    0.45360    1.000
    N159     N        0.74022    0.83443    0.24040    1.000
    N160     N        0.74409    0.83803    0.09520    1.000
    N161     N        0.76686    0.86088    0.89320    1.000
    N162     N        0.73406    0.82759    0.87210    1.000
    N163     N        0.92790    0.68627    0.80210    1.000
    N164     N        0.89311    0.67670    0.68720    1.000
    N165     N        0.90454    0.73848    0.69230    1.000
    N166     N        0.89889    0.77693    0.65640    1.000
    N167     N        0.86653    0.83539    0.64810    1.000
    N168     N        0.91060    0.83084    0.54710    1.000
    C105     C        0.71020    0.85772    0.32650    1.000
    H105     H        0.68750    0.87860    0.29810    1.000
    C106     C        0.76614    0.80727    0.32310    1.000
    H106     H        0.78970    0.78720    0.29140    1.000
    C107     C        0.77256    0.86662    0.02690    1.000
    H107     H        0.79270    0.88690    0.06860    1.000
    C108     C        0.72109    0.81473    0.99640    1.000
    H108     H        0.69920    0.79270    0.01450    1.000
    C109     C        0.93470    0.72347    0.80270    1.000
    H109     H        0.95650    0.73750    0.86750    1.000
    C110     C        0.88004    0.70853    0.62440    1.000
    H110     H        0.85710    0.71050    0.54420    1.000
    C111     C        0.86082    0.80279    0.71090    1.000
    H111     H        0.83450    0.79770    0.78290    1.000
    C112     C        0.92908    0.79582    0.55530    1.000
    H112     H        0.95850    0.78520    0.50040    1.000
    Ag29     Ag       0.42718    0.37520    0.38884    1.000
    Ag30     Ag       0.30873    0.39111    0.71205    1.000
    N169     N        0.25275    0.31394    0.45310    1.000
    N170     N        0.21753    0.34694    0.45360    1.000
    N171     N        0.24022    0.33443    0.24040    1.000
    N172     N        0.24409    0.33803    0.09520    1.000
    N173     N        0.26686    0.36088    0.89320    1.000
    N174     N        0.23406    0.32759    0.87210    1.000
    N175     N        0.42790    0.18627    0.80210    1.000
    N176     N        0.39311    0.17670    0.68720    1.000
    N177     N        0.40454    0.23848    0.69230    1.000
    N178     N        0.39889    0.27693    0.65640    1.000
    N179     N        0.36653    0.33539    0.64810    1.000
    N180     N        0.41060    0.33084    0.54710    1.000
    C113     C        0.21020    0.35772    0.32650    1.000
    H113     H        0.18750    0.37860    0.29810    1.000
    C114     C        0.26614    0.30727    0.32310    1.000
    H114     H        0.28970    0.28720    0.29140    1.000
    C115     C        0.27256    0.36662    0.02690    1.000
    H115     H        0.29270    0.38690    0.06860    1.000
    C116     C        0.22109    0.31473    0.99640    1.000
    H116     H        0.19920    0.29270    0.01450    1.000
    C117     C        0.43470    0.22347    0.80270    1.000
    H117     H        0.45650    0.23750    0.86750    1.000
    C118     C        0.38004    0.20853    0.62440    1.000
    H118     H        0.35710    0.21050    0.54420    1.000
    C119     C        0.36082    0.30279    0.71090    1.000
    H119     H        0.33450    0.29770    0.78290    1.000
    C120     C        0.42908    0.29582    0.55530    1.000
    H120     H        0.45850    0.28520    0.50040    1.000
    Ag31     Ag       0.42718    0.87520    0.88884    1.000
    Ag32     Ag       0.30873    0.89111    0.21205    1.000
    N181     N        0.25275    0.81394    0.95310    1.000
    N182     N        0.21753    0.84694    0.95360    1.000
    N183     N        0.24022    0.83443    0.74040    1.000
    N184     N        0.24409    0.83803    0.59520    1.000
    N185     N        0.26686    0.86088    0.39320    1.000
    N186     N        0.23406    0.82759    0.37210    1.000
    N187     N        0.42790    0.68627    0.30210    1.000
    N188     N        0.39311    0.67670    0.18720    1.000
    N189     N        0.40454    0.73848    0.19230    1.000
    N190     N        0.39889    0.77693    0.15640    1.000
    N191     N        0.36653    0.83539    0.14810    1.000
    N192     N        0.41060    0.83084    0.04710    1.000
    C121     C        0.21020    0.85772    0.82650    1.000
    H121     H        0.18750    0.87860    0.79810    1.000
    C122     C        0.26614    0.80727    0.82310    1.000
    H122     H        0.28970    0.78720    0.79140    1.000
    C123     C        0.27256    0.86662    0.52690    1.000
    H123     H        0.29270    0.88690    0.56860    1.000
    C124     C        0.22109    0.81473    0.49640    1.000
    H124     H        0.19920    0.79270    0.51450    1.000
    C125     C        0.43470    0.72347    0.30270    1.000
    H125     H        0.45650    0.73750    0.36750    1.000
    C126     C        0.38004    0.70853    0.12440    1.000
    H126     H        0.35710    0.71050    0.04420    1.000
    C127     C        0.36082    0.80279    0.21090    1.000
    H127     H        0.33450    0.79770    0.28290    1.000
    C128     C        0.42908    0.79582    0.05530    1.000
    H128     H        0.45850    0.78520    0.00040    1.000
