# CIF file generated by openbabel 3.1.0, see https://openbabel.org
data_I
_chemical_name_common 'image0'
_cell_length_a 33.5106
_cell_length_b 33.5097
_cell_length_c 33.5065
_cell_angle_alpha 60.0042
_cell_angle_beta 60.0084
_cell_angle_gamma 59.9948
_space_group_name_H-M_alt 'P 1'
_space_group_name_Hall 'P 1'
loop_
    _symmetry_equiv_pos_as_xyz
    x,y,z
loop_
    _atom_site_label
    _atom_site_type_symbol
    _atom_site_fract_x
    _atom_site_fract_y
    _atom_site_fract_z
    _atom_site_occupancy
    O1       O        0.05543    0.41692    0.48752    1.000
    O2       O        0.02093    0.54602    0.39282    1.000
    O3       O        0.10269    0.46435    0.39273    1.000
    O4       O        0.97367    0.49860    0.48761    1.000
    O5       O        0.12982    0.49147    0.41977    1.000
    O6       O        0.04806    0.57315    0.41986    1.000
    O7       O        0.08256    0.44404    0.51456    1.000
    Cu1      Cu       0.06779    0.51107    0.46968    1.000
    Cu2      Cu       0.03570    0.47899    0.43770    1.000
    O8       O        0.00080    0.52572    0.51465    1.000
    N1       N        0.09036    0.53363    0.49217    1.000
    N2       N        0.01314    0.45643    0.41521    1.000
    C1       C        0.14303    0.72029    0.54474    1.000
    C2       C        0.14317    0.58625    0.67871    1.000
    C3       C        0.14304    0.58628    0.54474    1.000
    C4       C        0.27709    0.58631    0.54464    1.000
    C5       C        0.15779    0.67607    0.55946    1.000
    C6       C        0.15787    0.60101    0.63449    1.000
    C7       C        0.23287    0.60104    0.55941    1.000
    C8       C        0.15780    0.60102    0.55946    1.000
    C9       C        0.12424    0.77658    0.52599    1.000
    C10      C        0.12426    0.56751    0.52600    1.000
    C11      C        0.17658    0.61978    0.57821    1.000
    C12      C        0.35894    0.60043    0.50151    1.000
    C13      C        0.41010    0.58339    0.48442    1.000
    C14      C        0.41014    0.50060    0.51600    1.000
    C15      C        0.35897    0.51764    0.53308    1.000
    C16      C        0.13655    0.80218    0.47569    1.000
    C17      C        0.11947    0.85335    0.45866    1.000
    C18      C        0.07776    0.85332    0.54222    1.000
    C19      C        0.09484    0.80215    0.55926    1.000
    C20      C        0.07395    0.57986    0.53840    1.000
    C21      C        0.05688    0.56280    0.52135    1.000
    C22      C        0.14043    0.52105    0.47952    1.000
    C23      C        0.15750    0.53811    0.49656    1.000
    C24      C        0.07416    0.57982    0.76062    1.000
    C25      C        0.05715    0.56274    0.81179    1.000
    C26      C        0.14073    0.52099    0.81172    1.000
    C27      C        0.15774    0.53806    0.76055    1.000
    C28      C        0.12445    0.56748    0.73500    1.000
    C29      C        0.33337    0.56756    0.52584    1.000
    C30      C        0.97939    0.42235    0.17030    1.000
    C31      C        0.97906    0.21190    0.38090    1.000
    C32      C        0.97909    0.42236    0.38099    1.000
    C33      C        0.76866    0.42258    0.38059    1.000
    C34      C        0.87027    0.38862    0.34687    1.000
    C35      C        0.94528    0.38854    0.34702    1.000
    C36      C        0.92655    0.36980    0.32819    1.000
    C37      C        0.91238    0.28797    0.37124    1.000
    C38      C        0.92940    0.23680    0.38832    1.000
    C39      C        0.01219    0.23672    0.35687    1.000
    C40      C        0.99517    0.28789    0.33980    1.000
    C41      C        0.84462    0.37629    0.39716    1.000
    C42      C        0.79345    0.39340    0.41413    1.000
    C43      C        0.79358    0.43516    0.33053    1.000
    C44      C        0.84475    0.41805    0.31355    1.000
    C45      C        0.93295    0.43884    0.33464    1.000
    C46      C        0.94997    0.45587    0.35176    1.000
    C47      C        0.99166    0.37230    0.39361    1.000
    C48      C        0.97463    0.35526    0.37650    1.000
    C49      C        0.93308    0.43883    0.24630    1.000
    C50      C        0.95021    0.45586    0.19513    1.000
    C51      C        0.99195    0.37228    0.19518    1.000
    C52      C        0.97483    0.35525    0.24635    1.000
    C53      C        0.94539    0.38853    0.27191    1.000
    C54      C        0.94527    0.31351    0.34698    1.000
    C55      C        0.99788    0.44174    0.11403    1.000
    C56      C        0.99712    0.15562    0.39994    1.000
    C57      C        0.99750    0.44176    0.39947    1.000
    C58      C        0.71238    0.44172    0.39860    1.000
    N3       N        0.43497    0.53372    0.49190    1.000
    O9       O        0.59120    0.52925    0.37515    1.000
    O10      O        0.59140    0.43423    0.50412    1.000
    O11      O        0.59131    0.43445    0.42233    1.000
    O12      O        0.59128    0.52903    0.45694    1.000
    O13      O        0.51002    0.46148    0.44951    1.000
    O14      O        0.51011    0.46126    0.53130    1.000
    O15      O        0.50991    0.55628    0.40233    1.000
    Cu3      Cu       0.50259    0.51124    0.46930    1.000
    Cu4      Cu       0.59872    0.47927    0.43715    1.000
    O16      O        0.51000    0.55606    0.48412    1.000
    N4       N        0.66633    0.45679    0.41454    1.000
    N5       N        0.09032    0.87819    0.49216    1.000
    O17      O        0.97366    0.03450    0.48758    1.000
    O18      O        0.10263    0.03454    0.39254    1.000
    O19      O        0.02080    0.03451    0.39281    1.000
    O20      O        0.05549    0.03454    0.48731    1.000
    O21      O        0.04793    0.95321    0.41990    1.000
    O22      O        0.12976    0.95325    0.41963    1.000
    O23      O        0.00079    0.95321    0.51467    1.000
    Cu5      Cu       0.06776    0.94581    0.46962    1.000
    Cu6      Cu       0.03566    0.04195    0.43759    1.000
    O24      O        0.08262    0.95325    0.51440    1.000
    N6       N        0.01309    0.10956    0.41505    1.000
    N7       N        0.09067    0.53358    0.83661    1.000
    O25      O        0.08612    0.41694    0.99291    1.000
    O26      O        0.99112    0.54595    0.99295    1.000
    O27      O        0.99134    0.46414    0.99293    1.000
    O28      O        0.08590    0.49875    0.99293    1.000
    O29      O        0.01841    0.49125    0.91164    1.000
    O30      O        0.01819    0.57306    0.91167    1.000
    O31      O        0.11319    0.44405    0.91162    1.000
    Cu7      Cu       0.06816    0.51103    0.90422    1.000
    Cu8      Cu       0.03615    0.47897    0.00035    1.000
    O32      O        0.11296    0.52586    0.91164    1.000
    N8       N        0.01363    0.45641    0.06797    1.000
    C59      C        0.03126    0.57586    0.39329    1.000
    C60      C        0.13251    0.47471    0.39318    1.000
    C61      C        0.07223    0.41421    0.51409    1.000
    C62      C        0.97098    0.51536    0.51420    1.000
    C63      C        0.55078    0.43466    0.53395    1.000
    C64      C        0.55067    0.43493    0.43267    1.000
    C65      C        0.55053    0.55585    0.37249    1.000
    C66      C        0.55064    0.55558    0.47378    1.000
    C67      C        0.13241    0.99400    0.39296    1.000
    C68      C        0.03111    0.99386    0.39333    1.000
    C69      C        0.97098    0.99385    0.51421    1.000
    C70      C        0.07231    0.99390    0.51388    1.000
    C71      C        0.99157    0.57576    0.95232    1.000
    C72      C        0.99185    0.47445    0.95227    1.000
    C73      C        0.11273    0.41424    0.95226    1.000
    C74      C        0.11246    0.51556    0.95229    1.000
    H1       H        0.04705    0.60377    0.73982    1.000
    O33      O        0.85856    0.31561    0.37899    1.000
    H2       H        0.84625    0.30580    0.36087    1.000
    H3       H        0.55063    0.58529    0.48118    1.000
    O34      O        0.02150    0.62498    0.35389    1.000
    H4       H        0.02577    0.62000    0.32145    1.000
    H5       H        0.16937    0.99424    0.36305    1.000
    O35      O        0.08215    0.99390    0.55321    1.000
    H6       H        0.11997    0.99391    0.53921    1.000
    O36      O        0.00262    0.57612    0.53472    1.000
    H7       H        0.99282    0.59642    0.50091    1.000
    H8       H        0.96175    0.61281    0.95233    1.000
    O37      O        0.15181    0.52536    0.95228    1.000
    H9       H        0.13783    0.56318    0.95229    1.000
    O38      O        0.02127    0.99385    0.35400    1.000
    H10      H        0.98345    0.99384    0.36800    1.000
    H11      H        0.93394    0.99384    0.54405    1.000
    H12      H        0.55083    0.40483    0.57100    1.000
    O39      O        0.00290    0.57607    0.83942    1.000
    H13      H        0.98262    0.59940    0.81305    1.000
    O40      O        0.15225    0.36516    0.95224    1.000
    H14      H        0.16261    0.34810    0.98537    1.000
    O41      O        0.95252    0.46466    0.95222    1.000
    H15      H        0.96651    0.42685    0.95219    1.000
    H16      H        0.55047    0.58568    0.33545    1.000
    O42      O        0.17664    0.48926    0.83927    1.000
    H17      H        0.19994    0.50958    0.82943    1.000
    O43      O        0.21199    0.52475    0.73292    1.000
    H18      H        0.23228    0.50143    0.75928    1.000
    O44      O        0.16826    0.77460    0.43981    1.000
    H19      H        0.17808    0.73472    0.46011    1.000
    O45      O        0.03811    0.61156    0.57015    1.000
    H20      H        0.00026    0.61728    0.57590    1.000
    H21      H        0.16750    0.49710    0.45556    1.000
    O46      O        0.89393    0.20925    0.41448    1.000
    H22      H        0.91415    0.16937    0.42514    1.000
    H23      H        0.07960    0.37713    0.54384    1.000
    O47      O        0.98810    0.30100    0.27397    1.000
    H24      H        0.97436    0.28426    0.26412    1.000
    O48      O        0.21176    0.52479    0.48320    1.000
    H25      H        0.23200    0.50147    0.45987    1.000
    H26      H        0.33816    0.49087    0.55290    1.000
    H27      H        0.43097    0.45995    0.52189    1.000
    H28      H        0.16957    0.46741    0.36339    1.000
    O49      O        0.55069    0.39557    0.42286    1.000
    H29      H        0.58385    0.36313    0.42708    1.000
    H30      H        0.02195    0.30868    0.32004    1.000
    O50      O        0.43769    0.61885    0.45818    1.000
    H31      H        0.41129    0.65642    0.45601    1.000
    O51      O        0.92189    0.52502    0.55367    1.000
    H32      H        0.89795    0.56282    0.53980    1.000
    H33      H        0.12950    0.87419    0.41770    1.000
    O52      O        0.33133    0.65428    0.49370    1.000
    H34      H        0.35770    0.67427    0.47392    1.000
    H35      H        0.08481    0.78131    0.60022    1.000
    O53      O        0.04606    0.88090    0.57810    1.000
    H36      H        0.01227    0.87107    0.60143    1.000
    O54      O        0.93692    0.51012    0.16752    1.000
    H37      H        0.89659    0.52691    0.17727    1.000
    O55      O        0.90133    0.47472    0.27387    1.000
    H38      H        0.89565    0.51256    0.24747    1.000
    H39      H        0.90905    0.46593    0.31063    1.000
    O56      O        0.02370    0.33639    0.16762    1.000
    H40      H        0.02938    0.29855    0.19402    1.000
    H41      H        0.93993    0.49683    0.34169    1.000
    H42      H        0.98467    0.31430    0.38658    1.000
    O57      O        0.02332    0.33641    0.42541    1.000
    H43      H        0.02902    0.29857    0.43114    1.000
    O58      O        0.06602    0.20907    0.34913    1.000
    H44      H        0.08603    0.23543    0.32938    1.000
    H45      H        0.86539    0.35232    0.42429    1.000
    H46      H        0.77281    0.45912    0.30340    1.000
    O59      O        0.76579    0.38010    0.46838    1.000
    H47      H        0.79213    0.35676    0.48869    1.000
    H48      H        0.86563    0.42810    0.27260    1.000
