# CIF file generated by openbabel 3.1.0, see https://openbabel.org
data_I
_chemical_name_common 'image0'
_cell_length_a 14.724
_cell_length_b 8.561
_cell_length_c 13.267
_cell_angle_alpha 90
_cell_angle_beta 104.11
_cell_angle_gamma 90
_space_group_name_H-M_alt 'P 1'
_space_group_name_Hall 'P 1'
loop_
    _symmetry_equiv_pos_as_xyz
    x,y,z
loop_
    _atom_site_label
    _atom_site_type_symbol
    _atom_site_fract_x
    _atom_site_fract_y
    _atom_site_fract_z
    _atom_site_occupancy
    N1       N        0.20370    0.13740    0.34670    1.000
    N2       N        0.29510    0.33940    0.13330    1.000
    N3       N        0.12620    0.93340    0.50940    1.000
    N4       N        0.37320    0.93480    0.48550    1.000
    C1       C        0.27220    0.19980    0.29150    1.000
    C2       C        0.22750    0.26620    0.18480    1.000
    C3       C        0.04240    0.03190    0.48310    1.000
    C4       C        0.45580    0.03570    0.50980    1.000
    Li1      Li       0.24830    0.04010    0.49300    1.000
    H1       H        0.17500    0.04500    0.31200    1.000
    H2       H        0.16100    0.21400    0.34300    1.000
    H3       H        0.32400    0.42700    0.16800    1.000
    H4       H        0.34000    0.26400    0.13400    1.000
    H5       H        0.14000    0.89900    0.57300    1.000
    H6       H        0.11200    0.83500    0.47700    1.000
    H7       H        0.38800    0.84500    0.52200    1.000
    H8       H        0.36100    0.89500    0.42100    1.000
    H9       H        0.31500    0.29100    0.33900    1.000
    H10      H        0.31400    0.10500    0.28700    1.000
    H11      H        0.19100    0.17700    0.14000    1.000
    H12      H        0.18500    0.35500    0.19000    1.000
    H13      H        0.44000    0.14600    0.47400    1.000
    H14      H        0.47200    0.06200    0.58600    1.000
    H15      H        0.05800    0.14200    0.51000    1.000
    H16      H        0.02000    0.04500    0.40300    1.000
    N5       N        0.79630    0.63740    0.15330    1.000
    N6       N        0.70490    0.83940    0.36670    1.000
    N7       N        0.87380    0.43340    0.99060    1.000
    N8       N        0.62680    0.43480    0.01450    1.000
    C5       C        0.72780    0.69980    0.20850    1.000
    C6       C        0.77250    0.76620    0.31520    1.000
    C7       C        0.95760    0.53190    0.01690    1.000
    C8       C        0.54420    0.53570    0.99020    1.000
    Li2      Li       0.75170    0.54010    0.00700    1.000
    H17      H        0.82500    0.54500    0.18800    1.000
    H18      H        0.83900    0.71400    0.15700    1.000
    H19      H        0.67600    0.92700    0.33200    1.000
    H20      H        0.66000    0.76400    0.36600    1.000
    H21      H        0.86000    0.39900    0.92700    1.000
    H22      H        0.88800    0.33500    0.02300    1.000
    H23      H        0.61200    0.34500    0.97800    1.000
    H24      H        0.63900    0.39500    0.07900    1.000
    H25      H        0.68500    0.79100    0.16100    1.000
    H26      H        0.68600    0.60500    0.21300    1.000
    H27      H        0.80900    0.67700    0.36000    1.000
    H28      H        0.81500    0.85500    0.31000    1.000
    H29      H        0.56000    0.64600    0.02600    1.000
    H30      H        0.52800    0.56200    0.91400    1.000
    H31      H        0.94200    0.64200    0.99000    1.000
    H32      H        0.98000    0.54500    0.09700    1.000
    N9       N        0.79630    0.86260    0.65330    1.000
    N10      N        0.70490    0.66060    0.86670    1.000
    N11      N        0.87380    0.06660    0.49060    1.000
    N12      N        0.62680    0.06520    0.51450    1.000
    C9       C        0.72780    0.80020    0.70850    1.000
    C10      C        0.77250    0.73380    0.81520    1.000
    C11      C        0.95760    0.96810    0.51690    1.000
    C12      C        0.54420    0.96430    0.49020    1.000
    Li3      Li       0.75170    0.95990    0.50700    1.000
    H33      H        0.82500    0.95500    0.68800    1.000
    H34      H        0.83900    0.78600    0.65700    1.000
    H35      H        0.67600    0.57300    0.83200    1.000
    H36      H        0.66000    0.73600    0.86600    1.000
    H37      H        0.86000    0.10100    0.42700    1.000
    H38      H        0.88800    0.16500    0.52300    1.000
    H39      H        0.61200    0.15500    0.47800    1.000
    H40      H        0.63900    0.10500    0.57900    1.000
    H41      H        0.68500    0.70900    0.66100    1.000
    H42      H        0.68600    0.89500    0.71300    1.000
    H43      H        0.80900    0.82300    0.86000    1.000
    H44      H        0.81500    0.64500    0.81000    1.000
    H45      H        0.56000    0.85400    0.52600    1.000
    H46      H        0.52800    0.93800    0.41400    1.000
    H47      H        0.94200    0.85800    0.49000    1.000
    H48      H        0.98000    0.95500    0.59700    1.000
    N13      N        0.20370    0.36260    0.84670    1.000
    N14      N        0.29510    0.16060    0.63330    1.000
    N15      N        0.12620    0.56660    0.00940    1.000
    N16      N        0.37320    0.56520    0.98550    1.000
    C13      C        0.27220    0.30020    0.79150    1.000
    C14      C        0.22750    0.23380    0.68480    1.000
    C15      C        0.04240    0.46810    0.98310    1.000
    C16      C        0.45580    0.46430    0.00980    1.000
    Li4      Li       0.24830    0.45990    0.99300    1.000
    H49      H        0.17500    0.45500    0.81200    1.000
    H50      H        0.16100    0.28600    0.84300    1.000
    H51      H        0.32400    0.07300    0.66800    1.000
    H52      H        0.34000    0.23600    0.63400    1.000
    H53      H        0.14000    0.60100    0.07300    1.000
    H54      H        0.11200    0.66500    0.97700    1.000
    H55      H        0.38800    0.65500    0.02200    1.000
    H56      H        0.36100    0.60500    0.92100    1.000
    H57      H        0.31500    0.20900    0.83900    1.000
    H58      H        0.31400    0.39500    0.78700    1.000
    H59      H        0.19100    0.32300    0.64000    1.000
    H60      H        0.18500    0.14500    0.69000    1.000
    H61      H        0.44000    0.35400    0.97400    1.000
    H62      H        0.47200    0.43800    0.08600    1.000
    H63      H        0.05800    0.35800    0.01000    1.000
    H64      H        0.02000    0.45500    0.90300    1.000
