# CIF file generated by openbabel 3.1.0, see https://openbabel.org
data_I
_chemical_name_common 'image0'
_cell_length_a 9.5285
_cell_length_b 12.76
_cell_length_c 18.896
_cell_angle_alpha 106.72
_cell_angle_beta 98.91
_cell_angle_gamma 98.59
_space_group_name_H-M_alt 'P 1'
_space_group_name_Hall 'P 1'
loop_
    _symmetry_equiv_pos_as_xyz
    x,y,z
loop_
    _atom_site_label
    _atom_site_type_symbol
    _atom_site_fract_x
    _atom_site_fract_y
    _atom_site_fract_z
    _atom_site_occupancy
    Pr1      Pr       0.76770    0.98611    0.49706    1.000
    O1       O        0.54530    0.96140    0.41139    1.000
    O2       O        0.31230    0.95920    0.38227    1.000
    O3       O        0.14370    0.94260    0.60099    1.000
    O4       O        0.90400    0.89470    0.57077    1.000
    O5       O        0.98850    0.11650    0.57177    1.000
    O6       O        0.22330    0.18190    0.60630    1.000
    N1       N        0.43250    0.82550    0.13200    1.000
    N2       N        0.00960    0.86340    0.82500    1.000
    N3       N        0.04250    0.40380    0.81980    1.000
    C1       C        0.43160    0.94560    0.36480    1.000
    C2       C        0.55750    0.84760    0.18290    1.000
    H1       H        0.64250    0.83560    0.16640    1.000
    C3       C        0.56050    0.88740    0.25790    1.000
    H2       H        0.64730    0.90270    0.29270    1.000
    C4       C        0.43370    0.90510    0.28260    1.000
    C5       C        0.30840    0.88460    0.22970    1.000
    H3       H        0.22250    0.89750    0.24490    1.000
    C6       C        0.31050    0.84500    0.15430    1.000
    H4       H        0.22570    0.83170    0.11840    1.000
    C7       C        0.02460    0.91100    0.61320    1.000
    C8       C        0.89070    0.87540    0.78420    1.000
    H5       H        0.80620    0.87640    0.80300    1.000
    C9       C        0.89180    0.88650    0.71420    1.000
    H6       H        0.80680    0.89060    0.68440    1.000
    C10      C        0.01940    0.89170    0.68810    1.000
    C11      C        0.14180    0.87990    0.73190    1.000
    H7       H        0.22820    0.88120    0.71480    1.000
    C12      C        0.13600    0.86620    0.80080    1.000
    H8       H        0.21870    0.85900    0.83080    1.000
    C13      C        0.09580    0.18350    0.61500    1.000
    C14      C        0.17020    0.40210    0.80550    1.000
    H9       H        0.25020    0.44790    0.84160    1.000
    C15      C        0.19200    0.33470    0.73850    1.000
    H10      H        0.28510    0.33630    0.72910    1.000
    C16      C        0.07510    0.26550    0.68580    1.000
    C17      C        0.93960    0.27250    0.70080    1.000
    H11      H        0.85770    0.22980    0.66480    1.000
    C18      C        0.92410    0.34030    0.76690    1.000
    H12      H        0.83170    0.34370    0.77640    1.000
    C19      C        0.29430    0.74110    0.99790    1.000
    C20      C        0.23120    0.62620    0.97350    1.000
    C21      C        0.09560    0.58800    0.92240    1.000
    C22      C        0.02580    0.66320    0.89580    1.000
    C23      C        0.09000    0.77640    0.92360    1.000
    C24      C        0.22430    0.81630    0.97300    1.000
    C25      C        0.30670    0.54880    0.00230    1.000
    H13      H        0.37220    0.52290    0.97050    1.000
    H14      H        0.23660    0.48620    0.00190    1.000
    H15      H        0.36020    0.58710    0.05290    1.000
    C26      C        0.02270    0.46870    0.89640    1.000
    H16      H        0.91970    0.46390    0.89510    1.000
    H17      H        0.06010    0.43420    0.93290    1.000
    C27      C        0.88510    0.62200    0.84030    1.000
    H18      H        0.89870    0.57260    0.79400    1.000
    H19      H        0.85000    0.68430    0.83060    1.000
    H20      H        0.81580    0.58260    0.86040    1.000
    C28      C        0.00780    0.86020    0.90350    1.000
    H21      H        0.90800    0.84140    0.90820    1.000
    H22      H        0.05050    0.93400    0.93920    1.000
    C29      C        0.29600    0.93950    0.00130    1.000
    H23      H        0.32360    0.96210    0.96020    1.000
    H24      H        0.38050    0.95290    0.04020    1.000
    H25      H        0.22770    0.98180    0.02130    1.000
    C30      C        0.43840    0.78430    0.04890    1.000
    H26      H        0.48950    0.84540    0.03570    1.000
    H27      H        0.49380    0.72550    0.04090    1.000
    Pr2      Pr       0.23230    0.01389    0.50294    1.000
    O7       O        0.45470    0.03860    0.58861    1.000
    O8       O        0.68770    0.04080    0.61773    1.000
    O9       O        0.85630    0.05740    0.39901    1.000
    O10      O        0.09600    0.10530    0.42923    1.000
    O11      O        0.01150    0.88350    0.42823    1.000
    O12      O        0.77670    0.81810    0.39370    1.000
    N4       N        0.56750    0.17450    0.86800    1.000
    N5       N        0.99040    0.13660    0.17500    1.000
    N6       N        0.95750    0.59620    0.18020    1.000
    C31      C        0.56840    0.05440    0.63520    1.000
    C32      C        0.44250    0.15240    0.81710    1.000
    H28      H        0.35750    0.16440    0.83360    1.000
    C33      C        0.43950    0.11260    0.74210    1.000
    H29      H        0.35270    0.09730    0.70730    1.000
    C34      C        0.56630    0.09490    0.71740    1.000
    C35      C        0.69160    0.11540    0.77030    1.000
    H30      H        0.77750    0.10250    0.75510    1.000
    C36      C        0.68950    0.15500    0.84570    1.000
    H31      H        0.77430    0.16830    0.88160    1.000
    C37      C        0.97540    0.08900    0.38680    1.000
    C38      C        0.10930    0.12460    0.21580    1.000
    H32      H        0.19380    0.12360    0.19700    1.000
    C39      C        0.10820    0.11350    0.28580    1.000
    H33      H        0.19320    0.10940    0.31560    1.000
    C40      C        0.98060    0.10830    0.31190    1.000
    C41      C        0.85820    0.12010    0.26810    1.000
    H34      H        0.77180    0.11880    0.28520    1.000
    C42      C        0.86400    0.13380    0.19920    1.000
    H35      H        0.78130    0.14100    0.16920    1.000
    C43      C        0.90420    0.81650    0.38500    1.000
    C44      C        0.82980    0.59790    0.19450    1.000
    H36      H        0.74980    0.55210    0.15840    1.000
    C45      C        0.80800    0.66530    0.26150    1.000
    H37      H        0.71490    0.66370    0.27090    1.000
    C46      C        0.92490    0.73450    0.31420    1.000
    C47      C        0.06040    0.72750    0.29920    1.000
    H38      H        0.14230    0.77020    0.33520    1.000
    C48      C        0.07590    0.65970    0.23310    1.000
    H39      H        0.16830    0.65630    0.22360    1.000
    C49      C        0.70570    0.25890    0.00210    1.000
    C50      C        0.76880    0.37380    0.02650    1.000
    C51      C        0.90440    0.41200    0.07760    1.000
    C52      C        0.97420    0.33680    0.10420    1.000
    C53      C        0.91000    0.22360    0.07640    1.000
    C54      C        0.77570    0.18370    0.02700    1.000
    C55      C        0.69330    0.45120    0.99770    1.000
    H40      H        0.62780    0.47710    0.02950    1.000
    H41      H        0.76340    0.51380    0.99810    1.000
    H42      H        0.63980    0.41290    0.94710    1.000
    C56      C        0.97730    0.53130    0.10360    1.000
    H43      H        0.08030    0.53610    0.10490    1.000
    H44      H        0.93990    0.56580    0.06710    1.000
    C57      C        0.11490    0.37800    0.15970    1.000
    H45      H        0.10130    0.42740    0.20600    1.000
    H46      H        0.15000    0.31570    0.16940    1.000
    H47      H        0.18420    0.41740    0.13960    1.000
    C58      C        0.99220    0.13980    0.09650    1.000
    H48      H        0.09200    0.15860    0.09180    1.000
    H49      H        0.94950    0.06600    0.06080    1.000
    C59      C        0.70400    0.06050    0.99870    1.000
    H50      H        0.67640    0.03790    0.03980    1.000
    H51      H        0.61950    0.04710    0.95980    1.000
    H52      H        0.77230    0.01820    0.97870    1.000
    C60      C        0.56160    0.21570    0.95110    1.000
    H53      H        0.51050    0.15460    0.96430    1.000
    H54      H        0.50620    0.27450    0.95910    1.000
