# CIF file generated by openbabel 3.1.0, see https://openbabel.org
data_I
_chemical_name_common 'image0'
_cell_length_a 18.024
_cell_length_b 19.371
_cell_length_c 23.242
_cell_angle_alpha 89.45
_cell_angle_beta 87.05
_cell_angle_gamma 63.73
_space_group_name_H-M_alt 'P 1'
_space_group_name_Hall 'P 1'
loop_
    _symmetry_equiv_pos_as_xyz
    x,y,z
loop_
    _atom_site_label
    _atom_site_type_symbol
    _atom_site_fract_x
    _atom_site_fract_y
    _atom_site_fract_z
    _atom_site_occupancy
    K1       K        0.31140    0.04370    0.56240    1.000
    K2       K        0.88670    0.93170    0.44060    1.000
    Na1      Na       0.10730    0.14540    0.61830    1.000
    W1       W        0.93961    0.61802    0.59993    1.000
    W2       W        0.67766    0.94753    0.61314    1.000
    W3       W        0.92561    0.60061    0.89093    1.000
    W4       W        0.69672    0.72170    0.89228    1.000
    W5       W        0.13740    0.06936    0.09270    1.000
    W6       W        0.68085    0.58342    0.66733    1.000
    W7       W        0.71129    0.74371    0.60291    1.000
    W8       W        0.57823    0.11861    0.83771    1.000
    W9       W        0.11707    0.46615    0.66822    1.000
    W10      W        0.10081    0.45083    0.80940    1.000
    W11      W        0.49947    0.79075    0.81885    1.000
    W12      W        0.88517    0.94730    0.61674    1.000
    W13      W        0.18090    0.78240    0.82832    1.000
    W14      W        0.04760    0.74339    0.60783    1.000
    W15      W        0.51260    0.78589    0.67609    1.000
    W16      W        0.91257    0.45874    0.66535    1.000
    W17      W        0.22318    0.59581    0.67745    1.000
    W18      W        0.47466    0.99440    0.68675    1.000
    W19      W        0.65660    0.58416    0.80922    1.000
    W20      W        0.46484    0.99746    0.82872    1.000
    W21      W        0.97002    0.27117    0.10093    1.000
    W22      W        0.18093    0.80317    0.68669    1.000
    W23      W        0.88909    0.45794    0.80748    1.000
    W24      W        0.57529    0.12677    0.69603    1.000
    W25      W        0.01570    0.98859    0.83804    1.000
    W26      W        0.21005    0.57832    0.81897    1.000
    W27      W        0.78393    0.12996    0.69898    1.000
    W28      W        0.78761    0.11931    0.84093    1.000
    W29      W        0.01441    0.00960    0.69695    1.000
    W30      W        0.65700    0.92719    0.90365    1.000
    Eu1      Eu       0.16060    0.21120    0.17190    1.000
    Eu2      Eu       0.84871    0.79497    0.67864    1.000
    Eu3      Eu       0.39661    0.27721    0.94381    1.000
    Eu4      Eu       0.95580    0.28400    0.92540    1.000
    Eu5      Eu       0.08290    0.70290    0.07290    1.000
    P1       P        0.93930    0.59310    0.74590    1.000
    P2       P        0.65280    0.95010    0.75880    1.000
    P3       P        0.87700    0.95240    0.76330    1.000
    P4       P        0.69020    0.72810    0.74820    1.000
    P5       P        0.94510    0.26890    0.24520    1.000
    O1       O        0.89340    0.96810    0.54510    1.000
    O2       O        0.53520    0.17660    0.76850    1.000
    O3       O        0.71680    0.83830    0.60890    1.000
    O4       O        0.72390    0.74020    0.80330    1.000
    O5       O        0.83010    0.69660    0.60310    1.000
    O6       O        0.99800    0.25840    0.19080    1.000
    O7       O        0.71280    0.64810    0.62090    1.000
    O8       O        0.15410    0.40640    0.73560    1.000
    O9       O        0.87200    0.91410    0.70830    1.000
    O10      O        0.04570    0.54620    0.62120    1.000
    O11      O        0.27450    0.55300    0.74800    1.000
    O12      O        0.89780    0.38200    0.85050    1.000
    O13      O        0.58290    0.77520    0.87150    1.000
    O14      O        0.45280    0.78960    0.74650    1.000
    O15      O        0.23460    0.79600    0.75660    1.000
    O16      O        0.73240    0.74930    0.69660    1.000
    O17      O        0.79100    0.50860    0.67260    1.000
    O18      O        0.51860    0.18890    0.88920    1.000
    O19      O        0.55300    0.94280    0.87900    1.000
    O20      O        0.95070    0.28290    0.02970    1.000
    O21      O        0.57090    0.95610    0.63650    1.000
    O22      O        0.62750    0.03270    0.88530    1.000
    O23      O        0.81270    0.67420    0.89760    1.000
    O24      O        0.17220    0.50520    0.80750    1.000
    O25      O        0.88910    0.52730    0.86180    1.000
    O26      O        0.81450    0.04740    0.64560    1.000
    O27      O        0.64380    0.04850    0.64280    1.000
    O28      O        0.70440    0.64390    0.74220    1.000
    O29      O        0.06660    0.17590    0.09410    1.000
    O30      O        0.59440    0.78020    0.74800    1.000
    O31      O        0.13390    0.64980    0.62790    1.000
    O32      O        0.57370    0.67850    0.67300    1.000
    O33      O        0.50150    0.08280    0.69510    1.000
    O34      O        0.86660    0.90850    0.81700    1.000
    O35      O        0.59800    0.79140    0.62650    1.000
    O36      O        0.81070    0.03690    0.76510    1.000
    O37      O        0.89650    0.53820    0.74300    1.000
    O38      O        0.10640    0.89570    0.82820    1.000
    O39      O        0.78920    0.92830    0.61330    1.000
    O40      O        0.10630    0.79450    0.63520    1.000
    O41      O        0.63650    0.03430    0.76320    1.000
    O42      O        0.96240    0.95510    0.76270    1.000
    O43      O        0.90150    0.54410    0.61790    1.000
    O44      O        0.69360    0.90920    0.81260    1.000
    O45      O        0.03290    0.52980    0.86410    1.000
    O46      O        0.56600    0.95330    0.75530    1.000
    O47      O        0.11100    0.90930    0.69870    1.000
    O48      O        0.90290    0.07930    0.83670    1.000
    O49      O        0.41310    0.02550    0.75850    1.000
    O50      O        0.64640    0.54690    0.73450    1.000
    O51      O        0.23010    0.68920    0.68420    1.000
    O52      O        0.90070    0.21620    0.24310    1.000
    O53      O        0.97050    0.70120    0.60600    1.000
    O54      O        0.01180    0.43010    0.80250    1.000
    O55      O        0.12190    0.64900    0.75040    1.000
    O56      O        0.70630    0.91360    0.70390    1.000
    O57      O        0.69600    0.81810    0.90220    1.000
    O58      O        0.22290    0.67680    0.81960    1.000
    O59      O        0.04200    0.05250    0.11410    1.000
    O60      O        0.90560    0.22180    0.11980    1.000
    O61      O        0.66800    0.71040    0.96420    1.000
    O62      O        0.77520    0.17800    0.77160    1.000
    O63      O        0.76900    0.91330    0.90930    1.000
    O64      O        0.00230    0.75210    0.70160    1.000
    O65      O        0.69480    0.63130    0.86270    1.000
    O66      O        0.02320    0.43700    0.66900    1.000
    O67      O        0.67070    0.13420    0.83410    1.000
    O68      O        0.12270    0.63380    0.87240    1.000
    O69      O        0.47710    0.89780    0.68740    1.000
    O70      O        0.03500    0.54060    0.74260    1.000
    O71      O        0.91270    0.63600    0.80230    1.000
    O72      O        0.46700    0.89350    0.81880    1.000
    O73      O        0.90950    0.40720    0.73350    1.000
    O74      O        0.95830    0.67830    0.89980    1.000
    O75      O        0.91830    0.64580    0.69450    1.000
    O76      O        0.95010    0.83830    0.61210    1.000
    O77      O        0.18040    0.51680    0.67590    1.000
    O78      O        0.67790    0.14180    0.70230    1.000
    O79      O        0.55960    0.67600    0.80950    1.000
    O80      O        0.90900    0.09090    0.70130    1.000
    O81      O        0.49420    0.07670    0.83130    1.000
    O82      O        0.39600    0.04120    0.64040    1.000
    O83      O        0.97770    0.96100    0.64150    1.000
    O84      O        0.33590    0.03280    0.45810    1.000
    O85      O        0.77520    0.50480    0.80040    1.000
    O86      O        0.04460    0.03020    0.77020    1.000
    O87      O        0.20180    0.96460    0.11320    1.000
    O88      O        0.93870    0.94950    0.34950    1.000
    O89      O        0.83990    0.78920    0.77820    1.000
    O90      O        0.41500    0.37500    0.01300    1.000
    O91      O        0.48100    0.33200    0.96600    1.000
    O92      O        0.93230    0.21660    0.84140    1.000
    O93      O        0.06520    0.27000    0.85350    1.000
    O94      O        0.99400    0.63000    0.05560    1.000
    O95      O        0.11800    0.79800    0.03900    1.000
    O96      O        0.94600    0.41200    0.96000    1.000
    O97      O        0.05200    0.16300    0.93690    1.000
    O98      O        0.19300    0.64200    0.06000    1.000
    O99      O        0.82800    0.40800    0.96800    1.000
    O100     O        0.39800    0.34100    0.85400    1.000
    O101     O        0.34700    0.25800    0.85070    1.000
    C1       C        0.36400    0.31600    0.76110    1.000
    C2       C        0.34300    0.27000    0.73000    1.000
    H1       H        0.33100    0.23210    0.74870    1.000
    N1       N        0.33820    0.27810    0.67260    1.000
    H2       H        0.32430    0.24790    0.65230    1.000
    C3       C        0.35500    0.33200    0.64620    1.000
    H3       H        0.35170    0.33770    0.60560    1.000
    C4       C        0.37600    0.37800    0.67720    1.000
    H4       H        0.38790    0.41640    0.65860    1.000
    C5       C        0.38100    0.37000    0.73470    1.000
    H5       H        0.39570    0.40290    0.75660    1.000
    C6       C        0.37400    0.29500    0.82600    1.000
    K3       K        0.68860    0.95630    0.43760    1.000
    K4       K        0.11330    0.06830    0.55940    1.000
    Na2      Na       0.89270    0.85460    0.38170    1.000
    W31      W        0.06039    0.38198    0.40007    1.000
    W32      W        0.32234    0.05247    0.38686    1.000
    W33      W        0.07439    0.39939    0.10907    1.000
    W34      W        0.30328    0.27830    0.10772    1.000
    W35      W        0.86260    0.93064    0.90730    1.000
    W36      W        0.31915    0.41658    0.33267    1.000
    W37      W        0.28871    0.25629    0.39709    1.000
    W38      W        0.42177    0.88139    0.16229    1.000
    W39      W        0.88293    0.53385    0.33178    1.000
    W40      W        0.89919    0.54917    0.19060    1.000
    W41      W        0.50053    0.20925    0.18115    1.000
    W42      W        0.11483    0.05270    0.38326    1.000
    W43      W        0.81910    0.21760    0.17168    1.000
    W44      W        0.95240    0.25661    0.39217    1.000
    W45      W        0.48740    0.21411    0.32391    1.000
    W46      W        0.08743    0.54126    0.33465    1.000
    W47      W        0.77682    0.40419    0.32255    1.000
    W48      W        0.52534    0.00560    0.31325    1.000
    W49      W        0.34340    0.41584    0.19078    1.000
    W50      W        0.53516    0.00254    0.17128    1.000
    W51      W        0.02998    0.72883    0.89907    1.000
    W52      W        0.81907    0.19683    0.31331    1.000
    W53      W        0.11091    0.54206    0.19252    1.000
    W54      W        0.42471    0.87323    0.30397    1.000
    W55      W        0.98430    0.01141    0.16196    1.000
    W56      W        0.78995    0.42168    0.18103    1.000
    W57      W        0.21607    0.87004    0.30102    1.000
    W58      W        0.21239    0.88069    0.15907    1.000
    W59      W        0.98559    0.99040    0.30305    1.000
    W60      W        0.34300    0.07281    0.09635    1.000
    Eu6      Eu       0.83940    0.78880    0.82810    1.000
    Eu7      Eu       0.15129    0.20503    0.32136    1.000
    Eu8      Eu       0.60339    0.72279    0.05619    1.000
    Eu9      Eu       0.04420    0.71600    0.07460    1.000
    Eu10     Eu       0.91710    0.29710    0.92710    1.000
    P6       P        0.06070    0.40690    0.25410    1.000
    P7       P        0.34720    0.04990    0.24120    1.000
    P8       P        0.12300    0.04760    0.23670    1.000
    P9       P        0.30980    0.27190    0.25180    1.000
    P10      P        0.05490    0.73110    0.75480    1.000
    O102     O        0.10660    0.03190    0.45490    1.000
    O103     O        0.46480    0.82340    0.23150    1.000
    O104     O        0.28320    0.16170    0.39110    1.000
    O105     O        0.27610    0.25980    0.19670    1.000
    O106     O        0.16990    0.30340    0.39690    1.000
    O107     O        0.00200    0.74160    0.80920    1.000
    O108     O        0.28720    0.35190    0.37910    1.000
    O109     O        0.84590    0.59360    0.26440    1.000
    O110     O        0.12800    0.08590    0.29170    1.000
    O111     O        0.95430    0.45380    0.37880    1.000
    O112     O        0.72550    0.44700    0.25200    1.000
    O113     O        0.10220    0.61800    0.14950    1.000
    O114     O        0.41710    0.22480    0.12850    1.000
    O115     O        0.54720    0.21040    0.25350    1.000
    O116     O        0.76540    0.20400    0.24340    1.000
    O117     O        0.26760    0.25070    0.30340    1.000
    O118     O        0.20900    0.49140    0.32740    1.000
    O119     O        0.48140    0.81110    0.11080    1.000
    O120     O        0.44700    0.05720    0.12100    1.000
    O121     O        0.04930    0.71710    0.97030    1.000
    O122     O        0.42910    0.04390    0.36350    1.000
    O123     O        0.37250    0.96730    0.11470    1.000
    O124     O        0.18730    0.32580    0.10240    1.000
    O125     O        0.82780    0.49480    0.19250    1.000
    O126     O        0.11090    0.47270    0.13820    1.000
    O127     O        0.18550    0.95260    0.35440    1.000
    O128     O        0.35620    0.95150    0.35720    1.000
    O129     O        0.29560    0.35610    0.25780    1.000
    O130     O        0.93340    0.82410    0.90590    1.000
    O131     O        0.40560    0.21980    0.25200    1.000
    O132     O        0.86610    0.35020    0.37210    1.000
    O133     O        0.42630    0.32150    0.32700    1.000
    O134     O        0.49850    0.91720    0.30490    1.000
    O135     O        0.13340    0.09150    0.18300    1.000
    O136     O        0.40200    0.20860    0.37350    1.000
    O137     O        0.18930    0.96310    0.23490    1.000
    O138     O        0.10350    0.46180    0.25700    1.000
    O139     O        0.89360    0.10430    0.17180    1.000
    O140     O        0.21080    0.07170    0.38670    1.000
    O141     O        0.89370    0.20550    0.36480    1.000
    O142     O        0.36350    0.96570    0.23680    1.000
    O143     O        0.03760    0.04490    0.23730    1.000
    O144     O        0.09850    0.45590    0.38210    1.000
    O145     O        0.30640    0.09080    0.18740    1.000
    O146     O        0.96710    0.47020    0.13590    1.000
    O147     O        0.43400    0.04670    0.24470    1.000
    O148     O        0.88900    0.09070    0.30130    1.000
    O149     O        0.09710    0.92070    0.16330    1.000
    O150     O        0.58690    0.97450    0.24150    1.000
    O151     O        0.35360    0.45310    0.26550    1.000
    O152     O        0.76990    0.31080    0.31580    1.000
    O153     O        0.09930    0.78380    0.75690    1.000
    O154     O        0.02950    0.29880    0.39400    1.000
    O155     O        0.98820    0.56990    0.19750    1.000
    O156     O        0.87810    0.35100    0.24960    1.000
    O157     O        0.29370    0.08640    0.29610    1.000
    O158     O        0.30400    0.18190    0.09780    1.000
    O159     O        0.77710    0.32320    0.18040    1.000
    O160     O        0.95800    0.94750    0.88590    1.000
    O161     O        0.09440    0.77820    0.88020    1.000
    O162     O        0.33200    0.28960    0.03580    1.000
    O163     O        0.22480    0.82200    0.22840    1.000
    O164     O        0.23100    0.08670    0.09070    1.000
    O165     O        0.99770    0.24790    0.29840    1.000
    O166     O        0.30520    0.36870    0.13730    1.000
    O167     O        0.97680    0.56300    0.33100    1.000
    O168     O        0.32930    0.86580    0.16590    1.000
    O169     O        0.87730    0.36620    0.12760    1.000
    O170     O        0.52290    0.10220    0.31260    1.000
    O171     O        0.96500    0.45940    0.25740    1.000
    O172     O        0.08730    0.36400    0.19770    1.000
    O173     O        0.53300    0.10650    0.18120    1.000
    O174     O        0.09050    0.59280    0.26650    1.000
    O175     O        0.04170    0.32170    0.10020    1.000
    O176     O        0.08170    0.35420    0.30550    1.000
    O177     O        0.04990    0.16170    0.38790    1.000
    O178     O        0.81960    0.48320    0.32410    1.000
    O179     O        0.32210    0.85820    0.29770    1.000
    O180     O        0.44040    0.32400    0.19050    1.000
    O181     O        0.09100    0.90910    0.29870    1.000
    O182     O        0.50580    0.92330    0.16870    1.000
    O183     O        0.60400    0.95880    0.35960    1.000
    O184     O        0.02230    0.03900    0.35850    1.000
    O185     O        0.66410    0.96720    0.54190    1.000
    O186     O        0.22480    0.49520    0.19960    1.000
    O187     O        0.95540    0.96980    0.22980    1.000
    O188     O        0.79820    0.03540    0.88680    1.000
    O189     O        0.06130    0.05050    0.65050    1.000
    O190     O        0.16010    0.21080    0.22180    1.000
    O191     O        0.58500    0.62500    0.98700    1.000
    O192     O        0.51900    0.66800    0.03400    1.000
    O193     O        0.06770    0.78340    0.15860    1.000
    O194     O        0.93480    0.73000    0.14650    1.000
    O195     O        0.00600    0.37000    0.94440    1.000
    O196     O        0.88200    0.20200    0.96100    1.000
    O197     O        0.05400    0.58800    0.04000    1.000
    O198     O        0.94800    0.83700    0.06310    1.000
    O199     O        0.80700    0.35800    0.94000    1.000
    O200     O        0.17200    0.59200    0.03200    1.000
    O201     O        0.60200    0.65900    0.14600    1.000
    O202     O        0.65300    0.74200    0.14930    1.000
    C7       C        0.63600    0.68400    0.23890    1.000
    C8       C        0.65700    0.73000    0.27000    1.000
    H6       H        0.66900    0.76790    0.25130    1.000
    N2       N        0.66180    0.72190    0.32740    1.000
    H7       H        0.67570    0.75210    0.34770    1.000
    C9       C        0.64500    0.66800    0.35380    1.000
    H8       H        0.64830    0.66230    0.39440    1.000
    C10      C        0.62400    0.62200    0.32280    1.000
    H9       H        0.61210    0.58360    0.34140    1.000
    C11      C        0.61900    0.63000    0.26530    1.000
    H10      H        0.60430    0.59710    0.24340    1.000
    C12      C        0.62600    0.70500    0.17400    1.000
