# CIF file generated by openbabel 3.1.0, see https://openbabel.org
data_I
_chemical_name_common 'image0'
_cell_length_a 32.4965
_cell_length_b 32.4965
_cell_length_c 13.1823
_cell_angle_alpha 90
_cell_angle_beta 90
_cell_angle_gamma 120
_space_group_name_H-M_alt 'P 1'
_space_group_name_Hall 'P 1'
loop_
    _symmetry_equiv_pos_as_xyz
    x,y,z
loop_
    _atom_site_label
    _atom_site_type_symbol
    _atom_site_fract_x
    _atom_site_fract_y
    _atom_site_fract_z
    _atom_site_occupancy
    Zn1      Zn       0.70980    0.01091    0.90866    1.000
    Zn2      Zn       0.66333    0.89187    0.35209    1.000
    Zn3      Zn       0.66940    0.83421    0.66545    1.000
    P1       P        0.66787    0.04072    0.72949    1.000
    P2       P        0.67762    0.90771    0.84354    1.000
    P3       P        0.59627    0.85071    0.54553    1.000
    P4       P        0.72527    0.85466    0.46583    1.000
    O1       O        0.68776    0.04860    0.83714    1.000
    O2       O        0.67822    0.98369    0.03648    1.000
    O3       O        0.69505    0.95990    0.31869    1.000
    O4       O        0.70989    0.96103    0.82737    1.000
    O5       O        0.69163    0.88140    0.76973    1.000
    O6       O        0.65461    0.77237    0.71359    1.000
    O7       O        0.61466    0.81801    0.57862    1.000
    O8       O        0.60798    0.86768    0.43697    1.000
    O9       O        0.77531    0.05248    0.95322    1.000
    O10      O        0.72498    0.86783    0.57657    1.000
    O11      O        0.71645    0.88509    0.39304    1.000
    O12      O        0.64010    0.86488    0.21758    1.000
    O13      O        0.63900    0.06660    0.73020    1.000
    O14      O        0.62610    0.89150    0.82000    1.000
    H1       H        0.63140    0.05140    0.73130    1.000
    H2       H        0.63080    0.89540    0.82680    1.000
    H3       H        0.55050    0.82500    0.54910    1.000
    H4       H        0.76950    0.86210    0.45400    1.000
    Zn4      Zn       0.37646    0.34425    0.24199    1.000
    Zn5      Zn       0.33000    0.22521    0.68542    1.000
    Zn6      Zn       0.33607    0.16754    0.99878    1.000
    P5       P        0.33454    0.37405    0.06282    1.000
    P6       P        0.34429    0.24104    0.17687    1.000
    P7       P        0.26294    0.18404    0.87886    1.000
    P8       P        0.39194    0.18799    0.79916    1.000
    O15      O        0.35443    0.38193    0.17047    1.000
    O16      O        0.34489    0.31702    0.36981    1.000
    O17      O        0.36172    0.29323    0.65202    1.000
    O18      O        0.37656    0.29436    0.16070    1.000
    O19      O        0.35830    0.21473    0.10306    1.000
    O20      O        0.32128    0.10570    0.04692    1.000
    O21      O        0.28133    0.15134    0.91195    1.000
    O22      O        0.27465    0.20101    0.77030    1.000
    O23      O        0.44198    0.38581    0.28655    1.000
    O24      O        0.39165    0.20116    0.90990    1.000
    O25      O        0.38312    0.21842    0.72637    1.000
    O26      O        0.30677    0.19821    0.55091    1.000
    O27      O        0.30567    0.39993    0.06353    1.000
    O28      O        0.29277    0.22483    0.15333    1.000
    H5       H        0.29807    0.38473    0.06463    1.000
    H6       H        0.29747    0.22873    0.16013    1.000
    H7       H        0.21717    0.15833    0.88243    1.000
    H8       H        0.43617    0.19543    0.78733    1.000
    Zn7      Zn       0.04313    0.67758    0.57533    1.000
    Zn8      Zn       0.99667    0.55854    0.01876    1.000
    Zn9      Zn       0.00273    0.50088    0.33212    1.000
    P9       P        0.00120    0.70739    0.39616    1.000
    P10      P        0.01095    0.57438    0.51021    1.000
    P11      P        0.92960    0.51738    0.21220    1.000
    P12      P        0.05860    0.52133    0.13250    1.000
    O29      O        0.02109    0.71527    0.50381    1.000
    O30      O        0.01155    0.65036    0.70315    1.000
    O31      O        0.02838    0.62657    0.98536    1.000
    O32      O        0.04322    0.62770    0.49404    1.000
    O33      O        0.02496    0.54807    0.43640    1.000
    O34      O        0.98794    0.43904    0.38026    1.000
    O35      O        0.94799    0.48468    0.24529    1.000
    O36      O        0.94131    0.53435    0.10364    1.000
    O37      O        0.10864    0.71915    0.61989    1.000
    O38      O        0.05831    0.53450    0.24324    1.000
    O39      O        0.04978    0.55176    0.05971    1.000
    O40      O        0.97343    0.53155    0.88425    1.000
    O41      O        0.97233    0.73327    0.39687    1.000
    O42      O        0.95943    0.55817    0.48667    1.000
    H9       H        0.96473    0.71807    0.39797    1.000
    H10      H        0.96413    0.56207    0.49347    1.000
    H11      H        0.88383    0.49167    0.21577    1.000
    H12      H        0.10283    0.52877    0.12067    1.000
    Zn10     Zn       0.98909    0.69888    0.90866    1.000
    Zn11     Zn       0.10813    0.77146    0.35209    1.000
    Zn12     Zn       0.16579    0.83519    0.66545    1.000
    P13      P        0.95928    0.62715    0.72949    1.000
    P14      P        0.09229    0.76991    0.84354    1.000
    P15      P        0.14929    0.74556    0.54553    1.000
    P16      P        0.14534    0.87061    0.46583    1.000
    O43      O        0.95140    0.63916    0.83714    1.000
    O44      O        0.01631    0.69453    0.03648    1.000
    O45      O        0.04010    0.73515    0.31869    1.000
    O46      O        0.03897    0.74886    0.82737    1.000
    O47      O        0.11860    0.81023    0.76973    1.000
    O48      O        0.22763    0.88224    0.71359    1.000
    O49      O        0.18199    0.79665    0.57862    1.000
    O50      O        0.13232    0.74030    0.43697    1.000
    O51      O        0.94752    0.72283    0.95322    1.000
    O52      O        0.13217    0.85715    0.57657    1.000
    O53      O        0.11491    0.83136    0.39304    1.000
    O54      O        0.13512    0.77522    0.21758    1.000
    O55      O        0.93340    0.57240    0.73020    1.000
    O56      O        0.10850    0.73460    0.82000    1.000
    H13      H        0.94860    0.58000    0.73130    1.000
    H14      H        0.10460    0.73540    0.82680    1.000
    H15      H        0.17500    0.72550    0.54910    1.000
    H16      H        0.13790    0.90740    0.45400    1.000
    Zn13     Zn       0.65575    0.03221    0.24199    1.000
    Zn14     Zn       0.77479    0.10479    0.68542    1.000
    Zn15     Zn       0.83246    0.16852    0.99878    1.000
    P17      P        0.62595    0.96048    0.06282    1.000
    P18      P        0.75896    0.10324    0.17687    1.000
    P19      P        0.81596    0.07889    0.87886    1.000
    P20      P        0.81201    0.20394    0.79916    1.000
    O57      O        0.61807    0.97249    0.17047    1.000
    O58      O        0.68298    0.02786    0.36981    1.000
    O59      O        0.70677    0.06848    0.65202    1.000
    O60      O        0.70564    0.08219    0.16070    1.000
    O61      O        0.78527    0.14356    0.10306    1.000
    O62      O        0.89430    0.21557    0.04692    1.000
    O63      O        0.84866    0.12998    0.91195    1.000
    O64      O        0.79899    0.07363    0.77030    1.000
    O65      O        0.61419    0.05616    0.28655    1.000
    O66      O        0.79884    0.19048    0.90990    1.000
    O67      O        0.78158    0.16469    0.72637    1.000
    O68      O        0.80179    0.10855    0.55091    1.000
    O69      O        0.60007    0.90573    0.06353    1.000
    O70      O        0.77517    0.06793    0.15333    1.000
    H17      H        0.61527    0.91333    0.06463    1.000
    H18      H        0.77127    0.06873    0.16013    1.000
    H19      H        0.84167    0.05883    0.88243    1.000
    H20      H        0.80457    0.24073    0.78733    1.000
    Zn16     Zn       0.32242    0.36555    0.57533    1.000
    Zn17     Zn       0.44146    0.43812    0.01876    1.000
    Zn18     Zn       0.49912    0.50186    0.33212    1.000
    P21      P        0.29261    0.29382    0.39616    1.000
    P22      P        0.42562    0.43658    0.51021    1.000
    P23      P        0.48262    0.41223    0.21220    1.000
    P24      P        0.47867    0.53728    0.13250    1.000
    O71      O        0.28473    0.30583    0.50381    1.000
    O72      O        0.34964    0.36120    0.70315    1.000
    O73      O        0.37343    0.40182    0.98536    1.000
    O74      O        0.37230    0.41553    0.49404    1.000
    O75      O        0.45193    0.47690    0.43640    1.000
    O76      O        0.56096    0.54891    0.38026    1.000
    O77      O        0.51532    0.46332    0.24529    1.000
    O78      O        0.46565    0.40697    0.10364    1.000
    O79      O        0.28085    0.38950    0.61989    1.000
    O80      O        0.46550    0.52382    0.24324    1.000
    O81      O        0.44824    0.49803    0.05971    1.000
    O82      O        0.46845    0.44189    0.88425    1.000
    O83      O        0.26673    0.23907    0.39687    1.000
    O84      O        0.44183    0.40127    0.48667    1.000
    H21      H        0.28193    0.24667    0.39797    1.000
    H22      H        0.43793    0.40207    0.49347    1.000
    H23      H        0.50833    0.39217    0.21577    1.000
    H24      H        0.47123    0.57407    0.12067    1.000
    Zn19     Zn       0.30112    0.29020    0.90866    1.000
    Zn20     Zn       0.22854    0.33667    0.35209    1.000
    Zn21     Zn       0.16481    0.33060    0.66545    1.000
    P25      P        0.37285    0.33213    0.72949    1.000
    P26      P        0.23009    0.32238    0.84354    1.000
    P27      P        0.25444    0.40373    0.54553    1.000
    P28      P        0.12939    0.27473    0.46583    1.000
    O85      O        0.36084    0.31224    0.83714    1.000
    O86      O        0.30547    0.32178    0.03648    1.000
    O87      O        0.26485    0.30495    0.31869    1.000
    O88      O        0.25114    0.29011    0.82737    1.000
    O89      O        0.18977    0.30837    0.76973    1.000
    O90      O        0.11776    0.34539    0.71359    1.000
    O91      O        0.20335    0.38534    0.57862    1.000
    O92      O        0.25970    0.39202    0.43697    1.000
    O93      O        0.27717    0.22469    0.95322    1.000
    O94      O        0.14285    0.27502    0.57657    1.000
    O95      O        0.16864    0.28355    0.39304    1.000
    O96      O        0.22478    0.35990    0.21758    1.000
    O97      O        0.42760    0.36100    0.73020    1.000
    O98      O        0.26540    0.37390    0.82000    1.000
    H25      H        0.42000    0.36860    0.73130    1.000
    H26      H        0.26460    0.36920    0.82680    1.000
    H27      H        0.27450    0.44950    0.54910    1.000
    H28      H        0.09260    0.23050    0.45400    1.000
    Zn22     Zn       0.96779    0.62354    0.24199    1.000
    Zn23     Zn       0.89521    0.67000    0.68542    1.000
    Zn24     Zn       0.83148    0.66393    0.99878    1.000
    P29      P        0.03952    0.66546    0.06282    1.000
    P30      P        0.89676    0.65571    0.17687    1.000
    P31      P        0.92111    0.73706    0.87886    1.000
    P32      P        0.79606    0.60806    0.79916    1.000
    O99      O        0.02751    0.64557    0.17047    1.000
    O100     O        0.97214    0.65511    0.36981    1.000
    O101     O        0.93152    0.63828    0.65202    1.000
    O102     O        0.91781    0.62344    0.16070    1.000
    O103     O        0.85644    0.64170    0.10306    1.000
    O104     O        0.78443    0.67872    0.04692    1.000
    O105     O        0.87002    0.71867    0.91195    1.000
    O106     O        0.92637    0.72535    0.77030    1.000
    O107     O        0.94384    0.55802    0.28655    1.000
    O108     O        0.80952    0.60835    0.90990    1.000
    O109     O        0.83531    0.61688    0.72637    1.000
    O110     O        0.89145    0.69323    0.55091    1.000
    O111     O        0.09427    0.69433    0.06353    1.000
    O112     O        0.93207    0.70723    0.15333    1.000
    H29      H        0.08667    0.70193    0.06463    1.000
    H30      H        0.93127    0.70253    0.16013    1.000
    H31      H        0.94117    0.78283    0.88243    1.000
    H32      H        0.75927    0.56383    0.78733    1.000
    Zn25     Zn       0.63445    0.95687    0.57533    1.000
    Zn26     Zn       0.56188    0.00333    0.01876    1.000
    Zn27     Zn       0.49814    0.99727    0.33212    1.000
    P33      P        0.70618    0.99880    0.39616    1.000
    P34      P        0.56342    0.98905    0.51021    1.000
    P35      P        0.58777    0.07040    0.21220    1.000
    P36      P        0.46272    0.94140    0.13250    1.000
    O113     O        0.69417    0.97891    0.50381    1.000
    O114     O        0.63880    0.98845    0.70315    1.000
    O115     O        0.59818    0.97162    0.98536    1.000
    O116     O        0.58447    0.95678    0.49404    1.000
    O117     O        0.52310    0.97504    0.43640    1.000
    O118     O        0.45109    0.01206    0.38026    1.000
    O119     O        0.53668    0.05201    0.24529    1.000
    O120     O        0.59303    0.05869    0.10364    1.000
    O121     O        0.61050    0.89136    0.61989    1.000
    O122     O        0.47618    0.94169    0.24324    1.000
    O123     O        0.50197    0.95022    0.05971    1.000
    O124     O        0.55811    0.02657    0.88425    1.000
    O125     O        0.76093    0.02767    0.39687    1.000
    O126     O        0.59873    0.04057    0.48667    1.000
    H33      H        0.75333    0.03527    0.39797    1.000
    H34      H        0.59793    0.03587    0.49347    1.000
    H35      H        0.60783    0.11617    0.21577    1.000
    H36      H        0.42593    0.89717    0.12067    1.000
    Zn28     Zn       0.29020    0.98909    0.09134    1.000
    Zn29     Zn       0.33667    0.10813    0.64791    1.000
    Zn30     Zn       0.33060    0.16579    0.33455    1.000
    P37      P        0.33213    0.95928    0.27051    1.000
    P38      P        0.32238    0.09229    0.15646    1.000
    P39      P        0.40373    0.14929    0.45447    1.000
    P40      P        0.27473    0.14534    0.53417    1.000
    O127     O        0.31224    0.95140    0.16286    1.000
    O128     O        0.32178    0.01631    0.96352    1.000
    O129     O        0.30495    0.04010    0.68131    1.000
    O130     O        0.29011    0.03897    0.17263    1.000
    O131     O        0.30837    0.11860    0.23027    1.000
    O132     O        0.34539    0.22763    0.28641    1.000
    O133     O        0.38534    0.18199    0.42138    1.000
    O134     O        0.39202    0.13232    0.56303    1.000
    O135     O        0.22469    0.94752    0.04678    1.000
    O136     O        0.27502    0.13217    0.42343    1.000
    O137     O        0.28355    0.11491    0.60696    1.000
    O138     O        0.35990    0.13512    0.78242    1.000
    O139     O        0.36100    0.93340    0.26980    1.000
    O140     O        0.37390    0.10850    0.18000    1.000
    H37      H        0.36860    0.94860    0.26870    1.000
    H38      H        0.36920    0.10460    0.17320    1.000
    H39      H        0.44950    0.17500    0.45090    1.000
    H40      H        0.23050    0.13790    0.54600    1.000
    Zn31     Zn       0.95687    0.32242    0.42467    1.000
    Zn32     Zn       0.00333    0.44146    0.98124    1.000
    Zn33     Zn       0.99727    0.49912    0.66788    1.000
    P41      P        0.99880    0.29261    0.60384    1.000
    P42      P        0.98905    0.42562    0.48979    1.000
    P43      P        0.07040    0.48262    0.78780    1.000
    P44      P        0.94140    0.47867    0.86750    1.000
    O141     O        0.97891    0.28473    0.49619    1.000
    O142     O        0.98845    0.34964    0.29685    1.000
    O143     O        0.97162    0.37343    0.01464    1.000
    O144     O        0.95678    0.37230    0.50596    1.000
    O145     O        0.97504    0.45193    0.56360    1.000
    O146     O        0.01206    0.56096    0.61974    1.000
    O147     O        0.05201    0.51532    0.75471    1.000
    O148     O        0.05869    0.46565    0.89636    1.000
    O149     O        0.89136    0.28085    0.38011    1.000
    O150     O        0.94169    0.46550    0.75676    1.000
    O151     O        0.95022    0.44824    0.94029    1.000
    O152     O        0.02657    0.46845    0.11575    1.000
    O153     O        0.02767    0.26673    0.60313    1.000
    O154     O        0.04057    0.44183    0.51333    1.000
    H41      H        0.03527    0.28193    0.60203    1.000
    H42      H        0.03587    0.43793    0.50653    1.000
    H43      H        0.11617    0.50833    0.78423    1.000
    H44      H        0.89717    0.47123    0.87933    1.000
    Zn34     Zn       0.62354    0.65575    0.75801    1.000
    Zn35     Zn       0.67000    0.77479    0.31458    1.000
    Zn36     Zn       0.66393    0.83246    0.00122    1.000
    P45      P        0.66546    0.62595    0.93718    1.000
    P46      P        0.65571    0.75896    0.82313    1.000
    P47      P        0.73706    0.81596    0.12114    1.000
    P48      P        0.60806    0.81201    0.20084    1.000
    O155     O        0.64557    0.61807    0.82953    1.000
    O156     O        0.65511    0.68298    0.63019    1.000
    O157     O        0.63828    0.70677    0.34798    1.000
    O158     O        0.62344    0.70564    0.83930    1.000
    O159     O        0.64170    0.78527    0.89694    1.000
    O160     O        0.67872    0.89430    0.95308    1.000
    O161     O        0.71867    0.84866    0.08805    1.000
    O162     O        0.72535    0.79899    0.22970    1.000
    O163     O        0.55802    0.61419    0.71345    1.000
    O164     O        0.60835    0.79884    0.09010    1.000
    O165     O        0.61688    0.78158    0.27363    1.000
    O166     O        0.69323    0.80179    0.44909    1.000
    O167     O        0.69433    0.60007    0.93647    1.000
    O168     O        0.70723    0.77517    0.84667    1.000
    H45      H        0.70193    0.61527    0.93537    1.000
    H46      H        0.70253    0.77127    0.83987    1.000
    H47      H        0.78283    0.84167    0.11757    1.000
    H48      H        0.56383    0.80457    0.21267    1.000
    Zn37     Zn       0.01091    0.30112    0.09134    1.000
    Zn38     Zn       0.89187    0.22854    0.64791    1.000
    Zn39     Zn       0.83421    0.16481    0.33455    1.000
    P49      P        0.04072    0.37285    0.27051    1.000
    P50      P        0.90771    0.23009    0.15646    1.000
    P51      P        0.85071    0.25444    0.45447    1.000
    P52      P        0.85466    0.12939    0.53417    1.000
    O169     O        0.04860    0.36084    0.16286    1.000
    O170     O        0.98369    0.30547    0.96352    1.000
    O171     O        0.95990    0.26485    0.68131    1.000
    O172     O        0.96103    0.25114    0.17263    1.000
    O173     O        0.88140    0.18977    0.23027    1.000
    O174     O        0.77237    0.11776    0.28641    1.000
    O175     O        0.81801    0.20335    0.42138    1.000
    O176     O        0.86768    0.25970    0.56303    1.000
    O177     O        0.05248    0.27717    0.04678    1.000
    O178     O        0.86783    0.14285    0.42343    1.000
    O179     O        0.88509    0.16864    0.60696    1.000
    O180     O        0.86488    0.22478    0.78242    1.000
    O181     O        0.06660    0.42760    0.26980    1.000
    O182     O        0.89150    0.26540    0.18000    1.000
    H49      H        0.05140    0.42000    0.26870    1.000
    H50      H        0.89540    0.26460    0.17320    1.000
    H51      H        0.82500    0.27450    0.45090    1.000
    H52      H        0.86210    0.09260    0.54600    1.000
    Zn40     Zn       0.67758    0.63445    0.42467    1.000
    Zn41     Zn       0.55854    0.56188    0.98124    1.000
    Zn42     Zn       0.50088    0.49814    0.66788    1.000
    P53      P        0.70739    0.70618    0.60384    1.000
    P54      P        0.57438    0.56342    0.48979    1.000
    P55      P        0.51738    0.58777    0.78780    1.000
    P56      P        0.52133    0.46272    0.86750    1.000
    O183     O        0.71527    0.69417    0.49619    1.000
    O184     O        0.65036    0.63880    0.29685    1.000
    O185     O        0.62657    0.59818    0.01464    1.000
    O186     O        0.62770    0.58447    0.50596    1.000
    O187     O        0.54807    0.52310    0.56360    1.000
    O188     O        0.43904    0.45109    0.61974    1.000
    O189     O        0.48468    0.53668    0.75471    1.000
    O190     O        0.53435    0.59303    0.89636    1.000
    O191     O        0.71915    0.61050    0.38011    1.000
    O192     O        0.53450    0.47618    0.75676    1.000
    O193     O        0.55176    0.50197    0.94029    1.000
    O194     O        0.53155    0.55811    0.11575    1.000
    O195     O        0.73327    0.76093    0.60313    1.000
    O196     O        0.55817    0.59873    0.51333    1.000
    H53      H        0.71807    0.75333    0.60203    1.000
    H54      H        0.56207    0.59793    0.50653    1.000
    H55      H        0.49167    0.60783    0.78423    1.000
    H56      H        0.52877    0.42593    0.87933    1.000
    Zn43     Zn       0.34425    0.96779    0.75801    1.000
    Zn44     Zn       0.22521    0.89521    0.31458    1.000
    Zn45     Zn       0.16754    0.83148    0.00122    1.000
    P57      P        0.37405    0.03952    0.93718    1.000
    P58      P        0.24104    0.89676    0.82313    1.000
    P59      P        0.18404    0.92111    0.12114    1.000
    P60      P        0.18799    0.79606    0.20084    1.000
    O197     O        0.38193    0.02751    0.82953    1.000
    O198     O        0.31702    0.97214    0.63019    1.000
    O199     O        0.29323    0.93152    0.34798    1.000
    O200     O        0.29436    0.91781    0.83930    1.000
    O201     O        0.21473    0.85644    0.89694    1.000
    O202     O        0.10570    0.78443    0.95308    1.000
    O203     O        0.15134    0.87002    0.08805    1.000
    O204     O        0.20101    0.92637    0.22970    1.000
    O205     O        0.38581    0.94384    0.71345    1.000
    O206     O        0.20116    0.80952    0.09010    1.000
    O207     O        0.21842    0.83531    0.27363    1.000
    O208     O        0.19821    0.89145    0.44909    1.000
    O209     O        0.39993    0.09427    0.93647    1.000
    O210     O        0.22483    0.93207    0.84667    1.000
    H57      H        0.38473    0.08667    0.93537    1.000
    H58      H        0.22873    0.93127    0.83987    1.000
    H59      H        0.15833    0.94117    0.11757    1.000
    H60      H        0.19543    0.75927    0.21267    1.000
    Zn46     Zn       0.69888    0.70980    0.09134    1.000
    Zn47     Zn       0.77146    0.66333    0.64791    1.000
    Zn48     Zn       0.83519    0.66940    0.33455    1.000
    P61      P        0.62715    0.66787    0.27051    1.000
    P62      P        0.76991    0.67762    0.15646    1.000
    P63      P        0.74556    0.59627    0.45447    1.000
    P64      P        0.87061    0.72527    0.53417    1.000
    O211     O        0.63916    0.68776    0.16286    1.000
    O212     O        0.69453    0.67822    0.96352    1.000
    O213     O        0.73515    0.69505    0.68131    1.000
    O214     O        0.74886    0.70989    0.17263    1.000
    O215     O        0.81023    0.69163    0.23027    1.000
    O216     O        0.88224    0.65461    0.28641    1.000
    O217     O        0.79665    0.61466    0.42138    1.000
    O218     O        0.74030    0.60798    0.56303    1.000
    O219     O        0.72283    0.77531    0.04678    1.000
    O220     O        0.85715    0.72498    0.42343    1.000
    O221     O        0.83136    0.71645    0.60696    1.000
    O222     O        0.77522    0.64010    0.78242    1.000
    O223     O        0.57240    0.63900    0.26980    1.000
    O224     O        0.73460    0.62610    0.18000    1.000
    H61      H        0.58000    0.63140    0.26870    1.000
    H62      H        0.73540    0.63080    0.17320    1.000
    H63      H        0.72550    0.55050    0.45090    1.000
    H64      H        0.90740    0.76950    0.54600    1.000
    Zn49     Zn       0.36555    0.04313    0.42467    1.000
    Zn50     Zn       0.43812    0.99667    0.98124    1.000
    Zn51     Zn       0.50186    0.00273    0.66788    1.000
    P65      P        0.29382    0.00120    0.60384    1.000
    P66      P        0.43658    0.01095    0.48979    1.000
    P67      P        0.41223    0.92960    0.78780    1.000
    P68      P        0.53728    0.05860    0.86750    1.000
    O225     O        0.30583    0.02109    0.49619    1.000
    O226     O        0.36120    0.01155    0.29685    1.000
    O227     O        0.40182    0.02838    0.01464    1.000
    O228     O        0.41553    0.04322    0.50596    1.000
    O229     O        0.47690    0.02496    0.56360    1.000
    O230     O        0.54891    0.98794    0.61974    1.000
    O231     O        0.46332    0.94799    0.75471    1.000
    O232     O        0.40697    0.94131    0.89636    1.000
    O233     O        0.38950    0.10864    0.38011    1.000
    O234     O        0.52382    0.05831    0.75676    1.000
    O235     O        0.49803    0.04978    0.94029    1.000
    O236     O        0.44189    0.97343    0.11575    1.000
    O237     O        0.23907    0.97233    0.60313    1.000
    O238     O        0.40127    0.95943    0.51333    1.000
    H65      H        0.24667    0.96473    0.60203    1.000
    H66      H        0.40207    0.96413    0.50653    1.000
    H67      H        0.39217    0.88383    0.78423    1.000
    H68      H        0.57407    0.10283    0.87933    1.000
    Zn52     Zn       0.03221    0.37646    0.75801    1.000
    Zn53     Zn       0.10479    0.33000    0.31458    1.000
    Zn54     Zn       0.16852    0.33607    0.00122    1.000
    P69      P        0.96048    0.33454    0.93718    1.000
    P70      P        0.10324    0.34429    0.82313    1.000
    P71      P        0.07889    0.26294    0.12114    1.000
    P72      P        0.20394    0.39194    0.20084    1.000
    O239     O        0.97249    0.35443    0.82953    1.000
    O240     O        0.02786    0.34489    0.63019    1.000
    O241     O        0.06848    0.36172    0.34798    1.000
    O242     O        0.08219    0.37656    0.83930    1.000
    O243     O        0.14356    0.35830    0.89694    1.000
    O244     O        0.21557    0.32128    0.95308    1.000
    O245     O        0.12998    0.28133    0.08805    1.000
    O246     O        0.07363    0.27465    0.22970    1.000
    O247     O        0.05616    0.44198    0.71345    1.000
    O248     O        0.19048    0.39165    0.09010    1.000
    O249     O        0.16469    0.38312    0.27363    1.000
    O250     O        0.10855    0.30677    0.44909    1.000
    O251     O        0.90573    0.30567    0.93647    1.000
    O252     O        0.06793    0.29277    0.84667    1.000
    H69      H        0.91333    0.29807    0.93537    1.000
    H70      H        0.06873    0.29747    0.83987    1.000
    H71      H        0.05883    0.21717    0.11757    1.000
    H72      H        0.24073    0.43617    0.21267    1.000
