# CIF file generated by openbabel 3.1.0, see https://openbabel.org
data_I
_chemical_name_common 'image0'
_cell_length_a 12.359
_cell_length_b 33.229
_cell_length_c 12.887
_cell_angle_alpha 90
_cell_angle_beta 96.42
_cell_angle_gamma 90
_space_group_name_H-M_alt 'P 1'
_space_group_name_Hall 'P 1'
loop_
    _symmetry_equiv_pos_as_xyz
    x,y,z
loop_
    _atom_site_label
    _atom_site_type_symbol
    _atom_site_fract_x
    _atom_site_fract_y
    _atom_site_fract_z
    _atom_site_occupancy
    Mn1      Mn       0.20042    0.06984    0.60195    1.000
    C1       C        0.40050    0.94832    0.71120    1.000
    H1       H        0.43000    0.97450    0.72360    1.000
    C2       C        0.46330    0.91553    0.74090    1.000
    H2       H        0.53390    0.91960    0.77690    1.000
    C3       C        0.32200    0.87345    0.67770    1.000
    H3       H        0.29230    0.84730    0.66540    1.000
    C4       C        0.25710    0.90603    0.65210    1.000
    H4       H        0.18320    0.90210    0.62510    1.000
    C5       C        0.49750    0.84075    0.74590    1.000
    C6       C        0.48280    0.81384    0.82450    1.000
    N1       N        0.56400    0.78603    0.81960    1.000
    C7       C        0.58330    0.82623    0.69450    1.000
    C8       C        0.42760    0.87688    0.72030    1.000
    N2       N        0.35930    0.10107    0.62220    1.000
    N3       N        0.19720    0.08994    0.76990    1.000
    N4       N        0.37980    0.13386    0.68450    1.000
    C9       C        0.48820    0.14256    0.69940    1.000
    C10      C        0.53880    0.11403    0.64410    1.000
    C11      C        0.45620    0.08859    0.59860    1.000
    C12      C        0.46400    0.05317    0.52920    1.000
    H5       H        0.45210    0.02850    0.56780    1.000
    H6       H        0.53650    0.05240    0.50520    1.000
    H7       H        0.40860    0.05530    0.46880    1.000
    C13      C        0.53370    0.17727    0.76320    1.000
    H8       H        0.52810    0.20170    0.72050    1.000
    H9       H        0.61030    0.17210    0.78780    1.000
    H10      H        0.49250    0.18080    0.82330    1.000
    C14      C        0.65620    0.10976    0.63430    1.000
    C15      C        0.70650    0.07232    0.65170    1.000
    H11      H        0.66560    0.05020    0.67330    1.000
    C16      C        0.71850    0.14236    0.60710    1.000
    H12      H        0.68630    0.16820    0.59690    1.000
    C17      C        0.28890    0.15139    0.73100    1.000
    H13      H        0.31230    0.17690    0.76620    1.000
    H14      H        0.22910    0.15750    0.67560    1.000
    N5       N        0.25020    0.12417    0.80580    1.000
    C18      C        0.25690    0.12662    0.91140    1.000
    C19      C        0.20490    0.09291    0.94460    1.000
    C20      C        0.16860    0.07121    0.85330    1.000
    C21      C        0.10720    0.03247    0.84300    1.000
    H15      H        0.07260    0.02950    0.77120    1.000
    H16      H        0.05120    0.03240    0.89120    1.000
    H17      H        0.15750    0.01000    0.85990    1.000
    C22      C        0.31290    0.16039    0.97070    1.000
    H18      H        0.38630    0.16360    0.94990    1.000
    H19      H        0.31780    0.15460    0.04560    1.000
    H20      H        0.27150    0.18530    0.95570    1.000
    O1       O        0.02694    0.05648    0.59437    1.000
    O2       O        0.05470    0.12174    0.58240    1.000
    C23      C        0.99200    0.09279    0.59280    1.000
    C24      C        0.87480    0.09910    0.60770    1.000
    C25      C        0.81430    0.06699    0.63800    1.000
    H21      H        0.84720    0.04130    0.64930    1.000
    C26      C        0.82720    0.13689    0.59500    1.000
    H22      H        0.86990    0.15920    0.57780    1.000
    C27      C        0.29740    0.94445    0.66470    1.000
    C28      C        0.22850    0.97996    0.63090    1.000
    O3       O        0.26830    0.01414    0.64510    1.000
    C29      C        0.19030    0.08259    0.05340    1.000
    O4       O        0.13220    0.97290    0.59000    1.000
    N6       N        0.62380    0.79315    0.73990    1.000
    C30      C        0.62580    0.84390    0.60170    1.000
    H23      H        0.69730    0.83230    0.59380    1.000
    H24      H        0.63270    0.87310    0.61050    1.000
    H25      H        0.57540    0.83800    0.53930    1.000
    C31      C        0.40370    0.81295    0.89820    1.000
    H26      H        0.34890    0.79230    0.87730    1.000
    H27      H        0.36820    0.83930    0.89960    1.000
    H28      H        0.44000    0.80670    0.96780    1.000
    O5       O        0.20130    0.07439    0.44010    1.000
    O6       O        0.09750    0.02333    0.38750    1.000
    C32      C        0.16560    0.06284    0.26050    1.000
    C33      C        0.15170    0.05257    0.37140    1.000
    C34      C        0.20440    0.04196    0.09150    1.000
    H29      H        0.22450    0.02150    0.04590    1.000
    C35      C        0.17750    0.11132    0.12740    1.000
    H30      H        0.17560    0.13880    0.10700    1.000
    C36      C        0.18930    0.03215    0.19420    1.000
    H31      H        0.19500    0.00510    0.21790    1.000
    C37      C        0.16710    0.10201    0.23080    1.000
    H32      H        0.16110    0.12280    0.28030    1.000
    C38      C        0.08330    0.06870    0.07590    1.000
    H33      H        0.02370    0.06650    0.02290    1.000
    C39      C        0.07350    0.05890    0.17950    1.000
    H34      H        0.00560    0.04940    0.19790    1.000
    C40      C        0.25530    0.07910    0.22710    1.000
    H35      H        0.31780    0.08200    0.27660    1.000
    C41      C        0.26300    0.09180    0.12630    1.000
    H36      H        0.32360    0.10750    0.11160    1.000
    Mn2      Mn       0.79958    0.56984    0.39805    1.000
    C42      C        0.59950    0.44832    0.28880    1.000
    H37      H        0.57000    0.47450    0.27640    1.000
    C43      C        0.53670    0.41553    0.25910    1.000
    H38      H        0.46610    0.41960    0.22310    1.000
    C44      C        0.67800    0.37345    0.32230    1.000
    H39      H        0.70770    0.34730    0.33460    1.000
    C45      C        0.74290    0.40603    0.34790    1.000
    H40      H        0.81680    0.40210    0.37490    1.000
    C46      C        0.50250    0.34075    0.25410    1.000
    C47      C        0.51720    0.31384    0.17550    1.000
    N7       N        0.43600    0.28603    0.18040    1.000
    C48      C        0.41670    0.32623    0.30550    1.000
    C49      C        0.57240    0.37688    0.27970    1.000
    N8       N        0.64070    0.60107    0.37780    1.000
    N9       N        0.80280    0.58994    0.23010    1.000
    N10      N        0.62020    0.63386    0.31550    1.000
    C50      C        0.51180    0.64256    0.30060    1.000
    C51      C        0.46120    0.61403    0.35590    1.000
    C52      C        0.54380    0.58859    0.40140    1.000
    C53      C        0.53600    0.55317    0.47080    1.000
    H41      H        0.54790    0.52850    0.43220    1.000
    H42      H        0.46350    0.55240    0.49480    1.000
    H43      H        0.59140    0.55530    0.53120    1.000
    C54      C        0.46630    0.67727    0.23680    1.000
    H44      H        0.47190    0.70170    0.27950    1.000
    H45      H        0.38970    0.67210    0.21220    1.000
    H46      H        0.50750    0.68080    0.17670    1.000
    C55      C        0.34380    0.60976    0.36570    1.000
    C56      C        0.29350    0.57232    0.34830    1.000
    H47      H        0.33440    0.55020    0.32670    1.000
    C57      C        0.28150    0.64236    0.39290    1.000
    H48      H        0.31370    0.66820    0.40310    1.000
    C58      C        0.71110    0.65139    0.26900    1.000
    H49      H        0.68770    0.67690    0.23380    1.000
    H50      H        0.77090    0.65750    0.32440    1.000
    N11      N        0.74980    0.62417    0.19420    1.000
    C59      C        0.74310    0.62662    0.08860    1.000
    C60      C        0.79510    0.59291    0.05540    1.000
    C61      C        0.83140    0.57121    0.14670    1.000
    C62      C        0.89280    0.53247    0.15700    1.000
    H51      H        0.92740    0.52950    0.22880    1.000
    H52      H        0.94880    0.53240    0.10880    1.000
    H53      H        0.84250    0.51000    0.14010    1.000
    C63      C        0.68710    0.66039    0.02930    1.000
    H54      H        0.61370    0.66360    0.05010    1.000
    H55      H        0.68220    0.65460    0.95440    1.000
    H56      H        0.72850    0.68530    0.04430    1.000
    O7       O        0.97306    0.55648    0.40563    1.000
    O8       O        0.94530    0.62174    0.41760    1.000
    C64      C        0.00800    0.59279    0.40720    1.000
    C65      C        0.12520    0.59910    0.39230    1.000
    C66      C        0.18570    0.56699    0.36200    1.000
    H57      H        0.15280    0.54130    0.35070    1.000
    C67      C        0.17280    0.63689    0.40500    1.000
    H58      H        0.13010    0.65920    0.42220    1.000
    C68      C        0.70260    0.44445    0.33530    1.000
    C69      C        0.77150    0.47996    0.36910    1.000
    O9       O        0.73170    0.51414    0.35490    1.000
    C70      C        0.80970    0.58259    0.94660    1.000
    O10      O        0.86780    0.47290    0.41000    1.000
    N12      N        0.37620    0.29315    0.26010    1.000
    C71      C        0.37420    0.34390    0.39830    1.000
    H59      H        0.30270    0.33230    0.40620    1.000
    H60      H        0.36730    0.37310    0.38950    1.000
    H61      H        0.42460    0.33800    0.46070    1.000
    C72      C        0.59630    0.31295    0.10180    1.000
    H62      H        0.65110    0.29230    0.12270    1.000
    H63      H        0.63180    0.33930    0.10040    1.000
    H64      H        0.56000    0.30670    0.03220    1.000
    O11      O        0.79870    0.57439    0.55990    1.000
    O12      O        0.90250    0.52333    0.61250    1.000
    C73      C        0.83440    0.56284    0.73950    1.000
    C74      C        0.84830    0.55257    0.62860    1.000
    C75      C        0.79560    0.54196    0.90850    1.000
    H65      H        0.77550    0.52150    0.95410    1.000
    C76      C        0.82250    0.61132    0.87260    1.000
    H66      H        0.82440    0.63880    0.89300    1.000
    C77      C        0.81070    0.53215    0.80580    1.000
    H67      H        0.80500    0.50510    0.78210    1.000
    C78      C        0.83290    0.60201    0.76920    1.000
    H68      H        0.83890    0.62280    0.71970    1.000
    C79      C        0.91670    0.56870    0.92410    1.000
    H69      H        0.97630    0.56650    0.97710    1.000
    C80      C        0.92650    0.55890    0.82050    1.000
    H70      H        0.99440    0.54940    0.80210    1.000
    C81      C        0.74470    0.57910    0.77290    1.000
    H71      H        0.68220    0.58200    0.72340    1.000
    C82      C        0.73700    0.59180    0.87370    1.000
    H72      H        0.67640    0.60750    0.88840    1.000
    Mn3      Mn       0.79958    0.93016    0.39805    1.000
    C83      C        0.59950    0.05168    0.28880    1.000
    H73      H        0.57000    0.02550    0.27640    1.000
    C84      C        0.53670    0.08447    0.25910    1.000
    H74      H        0.46610    0.08040    0.22310    1.000
    C85      C        0.67800    0.12655    0.32230    1.000
    H75      H        0.70770    0.15270    0.33460    1.000
    C86      C        0.74290    0.09397    0.34790    1.000
    H76      H        0.81680    0.09790    0.37490    1.000
    C87      C        0.50250    0.15925    0.25410    1.000
    C88      C        0.51720    0.18616    0.17550    1.000
    N13      N        0.43600    0.21397    0.18040    1.000
    C89      C        0.41670    0.17377    0.30550    1.000
    C90      C        0.57240    0.12312    0.27970    1.000
    N14      N        0.64070    0.89893    0.37780    1.000
    N15      N        0.80280    0.91006    0.23010    1.000
    N16      N        0.62020    0.86614    0.31550    1.000
    C91      C        0.51180    0.85744    0.30060    1.000
    C92      C        0.46120    0.88597    0.35590    1.000
    C93      C        0.54380    0.91141    0.40140    1.000
    C94      C        0.53600    0.94683    0.47080    1.000
    H77      H        0.54790    0.97150    0.43220    1.000
    H78      H        0.46350    0.94760    0.49480    1.000
    H79      H        0.59140    0.94470    0.53120    1.000
    C95      C        0.46630    0.82273    0.23680    1.000
    H80      H        0.47190    0.79830    0.27950    1.000
    H81      H        0.38970    0.82790    0.21220    1.000
    H82      H        0.50750    0.81920    0.17670    1.000
    C96      C        0.34380    0.89024    0.36570    1.000
    C97      C        0.29350    0.92768    0.34830    1.000
    H83      H        0.33440    0.94980    0.32670    1.000
    C98      C        0.28150    0.85764    0.39290    1.000
    H84      H        0.31370    0.83180    0.40310    1.000
    C99      C        0.71110    0.84861    0.26900    1.000
    H85      H        0.68770    0.82310    0.23380    1.000
    H86      H        0.77090    0.84250    0.32440    1.000
    N17      N        0.74980    0.87583    0.19420    1.000
    C100     C        0.74310    0.87338    0.08860    1.000
    C101     C        0.79510    0.90709    0.05540    1.000
    C102     C        0.83140    0.92879    0.14670    1.000
    C103     C        0.89280    0.96753    0.15700    1.000
    H87      H        0.92740    0.97050    0.22880    1.000
    H88      H        0.94880    0.96760    0.10880    1.000
    H89      H        0.84250    0.99000    0.14010    1.000
    C104     C        0.68710    0.83961    0.02930    1.000
    H90      H        0.61370    0.83640    0.05010    1.000
    H91      H        0.68220    0.84540    0.95440    1.000
    H92      H        0.72850    0.81470    0.04430    1.000
    O13      O        0.97306    0.94352    0.40563    1.000
    O14      O        0.94530    0.87826    0.41760    1.000
    C105     C        0.00800    0.90721    0.40720    1.000
    C106     C        0.12520    0.90090    0.39230    1.000
    C107     C        0.18570    0.93301    0.36200    1.000
    H93      H        0.15280    0.95870    0.35070    1.000
    C108     C        0.17280    0.86311    0.40500    1.000
    H94      H        0.13010    0.84080    0.42220    1.000
    C109     C        0.70260    0.05555    0.33530    1.000
    C110     C        0.77150    0.02004    0.36910    1.000
    O15      O        0.73170    0.98586    0.35490    1.000
    C111     C        0.80970    0.91741    0.94660    1.000
    O16      O        0.86780    0.02710    0.41000    1.000
    N18      N        0.37620    0.20685    0.26010    1.000
    C112     C        0.37420    0.15610    0.39830    1.000
    H95      H        0.30270    0.16770    0.40620    1.000
    H96      H        0.36730    0.12690    0.38950    1.000
    H97      H        0.42460    0.16200    0.46070    1.000
    C113     C        0.59630    0.18705    0.10180    1.000
    H98      H        0.65110    0.20770    0.12270    1.000
    H99      H        0.63180    0.16070    0.10040    1.000
    H100     H        0.56000    0.19330    0.03220    1.000
    O17      O        0.79870    0.92561    0.55990    1.000
    O18      O        0.90250    0.97667    0.61250    1.000
    C114     C        0.83440    0.93716    0.73950    1.000
    C115     C        0.84830    0.94743    0.62860    1.000
    C116     C        0.79560    0.95804    0.90850    1.000
    H101     H        0.77550    0.97850    0.95410    1.000
    C117     C        0.82250    0.88868    0.87260    1.000
    H102     H        0.82440    0.86120    0.89300    1.000
    C118     C        0.81070    0.96785    0.80580    1.000
    H103     H        0.80500    0.99490    0.78210    1.000
    C119     C        0.83290    0.89799    0.76920    1.000
    H104     H        0.83890    0.87720    0.71970    1.000
    C120     C        0.91670    0.93130    0.92410    1.000
    H105     H        0.97630    0.93350    0.97710    1.000
    C121     C        0.92650    0.94110    0.82050    1.000
    H106     H        0.99440    0.95060    0.80210    1.000
    C122     C        0.74470    0.92090    0.77290    1.000
    H107     H        0.68220    0.91800    0.72340    1.000
    C123     C        0.73700    0.90820    0.87370    1.000
    H108     H        0.67640    0.89250    0.88840    1.000
    Mn4      Mn       0.20042    0.43016    0.60195    1.000
    C124     C        0.40050    0.55168    0.71120    1.000
    H109     H        0.43000    0.52550    0.72360    1.000
    C125     C        0.46330    0.58447    0.74090    1.000
    H110     H        0.53390    0.58040    0.77690    1.000
    C126     C        0.32200    0.62655    0.67770    1.000
    H111     H        0.29230    0.65270    0.66540    1.000
    C127     C        0.25710    0.59397    0.65210    1.000
    H112     H        0.18320    0.59790    0.62510    1.000
    C128     C        0.49750    0.65925    0.74590    1.000
    C129     C        0.48280    0.68616    0.82450    1.000
    N19      N        0.56400    0.71397    0.81960    1.000
    C130     C        0.58330    0.67377    0.69450    1.000
    C131     C        0.42760    0.62312    0.72030    1.000
    N20      N        0.35930    0.39893    0.62220    1.000
    N21      N        0.19720    0.41006    0.76990    1.000
    N22      N        0.37980    0.36614    0.68450    1.000
    C132     C        0.48820    0.35744    0.69940    1.000
    C133     C        0.53880    0.38597    0.64410    1.000
    C134     C        0.45620    0.41141    0.59860    1.000
    C135     C        0.46400    0.44683    0.52920    1.000
    H113     H        0.45210    0.47150    0.56780    1.000
    H114     H        0.53650    0.44760    0.50520    1.000
    H115     H        0.40860    0.44470    0.46880    1.000
    C136     C        0.53370    0.32273    0.76320    1.000
    H116     H        0.52810    0.29830    0.72050    1.000
    H117     H        0.61030    0.32790    0.78780    1.000
    H118     H        0.49250    0.31920    0.82330    1.000
    C137     C        0.65620    0.39024    0.63430    1.000
    C138     C        0.70650    0.42768    0.65170    1.000
    H119     H        0.66560    0.44980    0.67330    1.000
    C139     C        0.71850    0.35764    0.60710    1.000
    H120     H        0.68630    0.33180    0.59690    1.000
    C140     C        0.28890    0.34861    0.73100    1.000
    H121     H        0.31230    0.32310    0.76620    1.000
    H122     H        0.22910    0.34250    0.67560    1.000
    N23      N        0.25020    0.37583    0.80580    1.000
    C141     C        0.25690    0.37338    0.91140    1.000
    C142     C        0.20490    0.40709    0.94460    1.000
    C143     C        0.16860    0.42879    0.85330    1.000
    C144     C        0.10720    0.46753    0.84300    1.000
    H123     H        0.07260    0.47050    0.77120    1.000
    H124     H        0.05120    0.46760    0.89120    1.000
    H125     H        0.15750    0.49000    0.85990    1.000
    C145     C        0.31290    0.33961    0.97070    1.000
    H126     H        0.38630    0.33640    0.94990    1.000
    H127     H        0.31780    0.34540    0.04560    1.000
    H128     H        0.27150    0.31470    0.95570    1.000
    O19      O        0.02694    0.44352    0.59437    1.000
    O20      O        0.05470    0.37826    0.58240    1.000
    C146     C        0.99200    0.40721    0.59280    1.000
    C147     C        0.87480    0.40090    0.60770    1.000
    C148     C        0.81430    0.43301    0.63800    1.000
    H129     H        0.84720    0.45870    0.64930    1.000
    C149     C        0.82720    0.36311    0.59500    1.000
    H130     H        0.86990    0.34080    0.57780    1.000
    C150     C        0.29740    0.55555    0.66470    1.000
    C151     C        0.22850    0.52004    0.63090    1.000
    O21      O        0.26830    0.48586    0.64510    1.000
    C152     C        0.19030    0.41741    0.05340    1.000
    O22      O        0.13220    0.52710    0.59000    1.000
    N24      N        0.62380    0.70685    0.73990    1.000
    C153     C        0.62580    0.65610    0.60170    1.000
    H131     H        0.69730    0.66770    0.59380    1.000
    H132     H        0.63270    0.62690    0.61050    1.000
    H133     H        0.57540    0.66200    0.53930    1.000
    C154     C        0.40370    0.68705    0.89820    1.000
    H134     H        0.34890    0.70770    0.87730    1.000
    H135     H        0.36820    0.66070    0.89960    1.000
    H136     H        0.44000    0.69330    0.96780    1.000
    O23      O        0.20130    0.42561    0.44010    1.000
    O24      O        0.09750    0.47667    0.38750    1.000
    C155     C        0.16560    0.43716    0.26050    1.000
    C156     C        0.15170    0.44743    0.37140    1.000
    C157     C        0.20440    0.45804    0.09150    1.000
    H137     H        0.22450    0.47850    0.04590    1.000
    C158     C        0.17750    0.38868    0.12740    1.000
    H138     H        0.17560    0.36120    0.10700    1.000
    C159     C        0.18930    0.46785    0.19420    1.000
    H139     H        0.19500    0.49490    0.21790    1.000
    C160     C        0.16710    0.39799    0.23080    1.000
    H140     H        0.16110    0.37720    0.28030    1.000
    C161     C        0.08330    0.43130    0.07590    1.000
    H141     H        0.02370    0.43350    0.02290    1.000
    C162     C        0.07350    0.44110    0.17950    1.000
    H142     H        0.00560    0.45060    0.19790    1.000
    C163     C        0.25530    0.42090    0.22710    1.000
    H143     H        0.31780    0.41800    0.27660    1.000
    C164     C        0.26300    0.40820    0.12630    1.000
    H144     H        0.32360    0.39250    0.11160    1.000
    Mn5      Mn       0.00000    0.00000    0.50000    1.000
    Mn6      Mn       0.00000    0.50000    0.50000    1.000
    Rh1      Rh       0.72975    0.75000    0.70573    1.000
    C165     C        0.58180    0.75000    0.88530    1.000
    H145     H        0.65710    0.75000    0.92090    1.000
    H146     H        0.53090    0.75000    0.93930    1.000
    Rh2      Rh       0.27025    0.25000    0.29427    1.000
    C166     C        0.41820    0.25000    0.11470    1.000
    H147     H        0.34290    0.25000    0.07910    1.000
    H148     H        0.46910    0.25000    0.06070    1.000
