# CIF file generated by openbabel 3.1.0, see https://openbabel.org
data_I
_chemical_name_common 'UXUZAP_clean'
_cell_length_a 9.0541
_cell_length_b 10.4443
_cell_length_c 18.2006
_cell_angle_alpha 90
_cell_angle_beta 90
_cell_angle_gamma 90
_space_group_name_H-M_alt 'P 1'
_space_group_name_Hall 'P 1'
loop_
    _symmetry_equiv_pos_as_xyz
    x,y,z
loop_
    _atom_site_label
    _atom_site_type_symbol
    _atom_site_fract_x
    _atom_site_fract_y
    _atom_site_fract_z
    _atom_site_occupancy
    Zn1      Zn       0.13211    0.01884    0.59969    1.000
    Zn2      Zn       0.63211    0.98116    0.40031    1.000
    Zn3      Zn       0.13211    0.48116    0.09969    1.000
    Zn4      Zn       0.63211    0.51884    0.90031    1.000
    H1       H        0.32780    0.03840    0.47020    1.000
    H2       H        0.72740    0.63550    0.60790    1.000
    H3       H        0.32660    0.69680    0.73360    1.000
    H4       H        0.23980    0.79740    0.69480    1.000
    H5       H        0.96660    0.68450    0.71090    1.000
    H6       H        0.85230    0.53850    0.78640    1.000
    H7       H        0.60390    0.80360    0.87120    1.000
    H8       H        0.70730    0.95710    0.79590    1.000
    H9       H        0.82780    0.96160    0.52980    1.000
    H10      H        0.22740    0.36450    0.39210    1.000
    H11      H        0.82660    0.30320    0.26640    1.000
    H12      H        0.73980    0.20260    0.30520    1.000
    H13      H        0.46660    0.31550    0.28910    1.000
    H14      H        0.35230    0.46150    0.21360    1.000
    H15      H        0.10390    0.19640    0.12880    1.000
    H16      H        0.20730    0.04290    0.20410    1.000
    H17      H        0.32780    0.46160    0.97020    1.000
    H18      H        0.72740    0.86450    0.10790    1.000
    H19      H        0.32660    0.80320    0.23360    1.000
    H20      H        0.23980    0.70260    0.19480    1.000
    H21      H        0.96660    0.81550    0.21090    1.000
    H22      H        0.85230    0.96150    0.28640    1.000
    H23      H        0.60390    0.69640    0.37120    1.000
    H24      H        0.70730    0.54290    0.29590    1.000
    H25      H        0.82780    0.53840    0.02980    1.000
    H26      H        0.22740    0.13550    0.89210    1.000
    H27      H        0.82660    0.19680    0.76640    1.000
    H28      H        0.73980    0.29740    0.80520    1.000
    H29      H        0.46660    0.18450    0.78910    1.000
    H30      H        0.35230    0.03850    0.71360    1.000
    H31      H        0.10390    0.30360    0.62880    1.000
    H32      H        0.20730    0.45710    0.70410    1.000
    C1       C        0.37330    0.97590    0.49880    1.000
    C2       C        0.64690    0.68940    0.60100    1.000
    C3       C        0.42150    0.75710    0.64610    1.000
    C4       C        0.41430    0.84130    0.58431    1.000
    C5       C        0.53100    0.83820    0.53635    1.000
    C6       C        0.92040    0.93430    0.69560    1.000
    C7       C        0.89280    0.71080    0.74310    1.000
    C8       C        0.84950    0.83740    0.74590    1.000
    C9       C        0.82420    0.62400    0.78890    1.000
    C10      C        0.67770    0.77980    0.83850    1.000
    C11      C        0.73960    0.87270    0.79370    1.000
    C12      C        0.87330    0.02410    0.50120    1.000
    C13      C        0.14690    0.31060    0.39900    1.000
    C14      C        0.92150    0.24290    0.35390    1.000
    C15      C        0.91430    0.15870    0.41569    1.000
    C16      C        0.03100    0.16180    0.46365    1.000
    C17      C        0.42040    0.06570    0.30440    1.000
    C18      C        0.39280    0.28920    0.25690    1.000
    C19      C        0.34950    0.16260    0.25410    1.000
    C20      C        0.32420    0.37600    0.21110    1.000
    C21      C        0.17770    0.22020    0.16150    1.000
    C22      C        0.23960    0.12730    0.20630    1.000
    C23      C        0.37330    0.52410    0.99880    1.000
    C24      C        0.64690    0.81060    0.10100    1.000
    C25      C        0.42150    0.74290    0.14610    1.000
    C26      C        0.41430    0.65870    0.08431    1.000
    C27      C        0.53100    0.66180    0.03635    1.000
    C28      C        0.92040    0.56570    0.19560    1.000
    C29      C        0.89280    0.78920    0.24310    1.000
    C30      C        0.84950    0.66260    0.24590    1.000
    C31      C        0.82420    0.87600    0.28890    1.000
    C32      C        0.67770    0.72020    0.33850    1.000
    C33      C        0.73960    0.62730    0.29370    1.000
    C34      C        0.87330    0.47590    0.00120    1.000
    C35      C        0.14690    0.18940    0.89900    1.000
    C36      C        0.92150    0.25710    0.85390    1.000
    C37      C        0.91430    0.34130    0.91569    1.000
    C38      C        0.03100    0.33820    0.96365    1.000
    C39      C        0.42040    0.43430    0.80440    1.000
    C40      C        0.39280    0.21080    0.75690    1.000
    C41      C        0.34950    0.33740    0.75410    1.000
    C42      C        0.32420    0.12400    0.71110    1.000
    C43      C        0.17770    0.27980    0.66150    1.000
    C44      C        0.23960    0.37270    0.70630    1.000
    N1       N        0.50500    0.92600    0.48101    1.000
    N2       N        0.65320    0.76340    0.54224    1.000
    N3       N        0.31170    0.93010    0.56010    1.000
    N4       N        0.54110    0.68140    0.65165    1.000
    N5       N        0.31690    0.74950    0.69760    1.000
    N6       N        0.72020    0.65710    0.83634    1.000
    N7       N        0.00500    0.07400    0.51899    1.000
    N8       N        0.15320    0.23660    0.45776    1.000
    N9       N        0.81170    0.06990    0.43990    1.000
    N10      N        0.04110    0.31860    0.34835    1.000
    N11      N        0.81690    0.25050    0.30240    1.000
    N12      N        0.22020    0.34290    0.16366    1.000
    N13      N        0.50500    0.57400    0.98101    1.000
    N14      N        0.65320    0.73660    0.04224    1.000
    N15      N        0.31170    0.56990    0.06010    1.000
    N16      N        0.54110    0.81860    0.15165    1.000
    N17      N        0.31690    0.75050    0.19760    1.000
    N18      N        0.72020    0.84290    0.33634    1.000
    N19      N        0.00500    0.42600    0.01899    1.000
    N20      N        0.15320    0.26340    0.95776    1.000
    N21      N        0.81170    0.43010    0.93990    1.000
    N22      N        0.04110    0.18140    0.84835    1.000
    N23      N        0.81690    0.24950    0.80240    1.000
    N24      N        0.22020    0.15710    0.66366    1.000
    O1       O        0.03790    0.89370    0.66284    1.000
    O2       O        0.86670    0.04020    0.68735    1.000
    O3       O        0.53790    0.10630    0.33716    1.000
    O4       O        0.36670    0.95980    0.31265    1.000
    O5       O        0.03790    0.60630    0.16284    1.000
    O6       O        0.86670    0.45980    0.18735    1.000
    O7       O        0.53790    0.39370    0.83716    1.000
    O8       O        0.36670    0.54020    0.81265    1.000
