# CIF file generated by openbabel 3.1.0, see https://openbabel.org
data_I
_chemical_name_common 'KEXKEF_clean'
_cell_length_a 7.2776
_cell_length_b 7.2776
_cell_length_c 26.931
_cell_angle_alpha 90
_cell_angle_beta 90
_cell_angle_gamma 90.4899
_space_group_name_H-M_alt 'P 1'
_space_group_name_Hall 'P 1'
loop_
    _symmetry_equiv_pos_as_xyz
    x,y,z
loop_
    _atom_site_label
    _atom_site_type_symbol
    _atom_site_fract_x
    _atom_site_fract_y
    _atom_site_fract_z
    _atom_site_occupancy
    Zn1      Zn       0.03971    0.68785    0.72095    1.000
    Zn2      Zn       0.68785    0.03971    0.27905    1.000
    Zn3      Zn       0.18785    0.53971    0.22095    1.000
    Zn4      Zn       0.53971    0.18785    0.77905    1.000
    H1       H        0.32260    0.68620    0.85950    1.000
    H2       H        0.11570    0.68550    0.83920    1.000
    H3       H        0.66530    0.68570    0.63720    1.000
    H4       H        0.45420    0.66200    0.70020    1.000
    H5       H        0.04490    0.73150    0.60770    1.000
    H6       H        0.24390    0.75590    0.54150    1.000
    H7       H        0.59620    0.86740    0.52320    1.000
    H8       H        0.74070    0.74490    0.55290    1.000
    H9       H        0.47440    0.60460    0.48390    1.000
    H10      H        0.68620    0.32260    0.14050    1.000
    H11      H        0.68550    0.11570    0.16080    1.000
    H12      H        0.68570    0.66530    0.36280    1.000
    H13      H        0.66200    0.45420    0.29980    1.000
    H14      H        0.73150    0.04490    0.39230    1.000
    H15      H        0.75590    0.24390    0.45850    1.000
    H16      H        0.86740    0.59620    0.47680    1.000
    H17      H        0.74490    0.74070    0.44710    1.000
    H18      H        0.60460    0.47440    0.51610    1.000
    H19      H        0.18620    0.82260    0.35950    1.000
    H20      H        0.18550    0.61570    0.33920    1.000
    H21      H        0.18570    0.16530    0.13720    1.000
    H22      H        0.16200    0.95420    0.20020    1.000
    H23      H        0.23150    0.54490    0.10770    1.000
    H24      H        0.25590    0.74390    0.04150    1.000
    H25      H        0.36740    0.09620    0.02320    1.000
    H26      H        0.24490    0.24070    0.05290    1.000
    H27      H        0.10460    0.97440    0.98390    1.000
    H28      H        0.82260    0.18620    0.64050    1.000
    H29      H        0.61570    0.18550    0.66080    1.000
    H30      H        0.16530    0.18570    0.86280    1.000
    H31      H        0.95420    0.16200    0.79980    1.000
    H32      H        0.54490    0.23150    0.89230    1.000
    H33      H        0.74390    0.25590    0.95850    1.000
    H34      H        0.09620    0.36740    0.97680    1.000
    H35      H        0.24070    0.24490    0.94710    1.000
    H36      H        0.97440    0.10460    0.01610    1.000
    C1       C        0.28640    0.86080    0.79987    1.000
    C2       C        0.24650    0.68670    0.82901    1.000
    C3       C        0.28610    0.51430    0.79880    1.000
    C4       C        0.53800    0.69640    0.63007    1.000
    C5       C        0.41060    0.68260    0.66748    1.000
    C6       C        0.17310    0.72270    0.61376    1.000
    C7       C        0.29110    0.73770    0.57406    1.000
    C8       C        0.47880    0.72620    0.58165    1.000
    C9       C        0.61450    0.74650    0.53925    1.000
    C10      C        0.86080    0.28640    0.20013    1.000
    C11      C        0.68670    0.24650    0.17099    1.000
    C12      C        0.51430    0.28610    0.20120    1.000
    C13      C        0.69640    0.53800    0.36993    1.000
    C14      C        0.68260    0.41060    0.33252    1.000
    C15      C        0.72270    0.17310    0.38624    1.000
    C16      C        0.73770    0.29110    0.42594    1.000
    C17      C        0.72620    0.47880    0.41835    1.000
    C18      C        0.74650    0.61450    0.46075    1.000
    C19      C        0.36080    0.78640    0.29987    1.000
    C20      C        0.18670    0.74650    0.32901    1.000
    C21      C        0.01430    0.78610    0.29880    1.000
    C22      C        0.19640    0.03800    0.13007    1.000
    C23      C        0.18260    0.91060    0.16748    1.000
    C24      C        0.22270    0.67310    0.11376    1.000
    C25      C        0.23770    0.79110    0.07406    1.000
    C26      C        0.22620    0.97880    0.08165    1.000
    C27      C        0.24650    0.11450    0.03925    1.000
    C28      C        0.78640    0.36080    0.70013    1.000
    C29      C        0.74650    0.18670    0.67099    1.000
    C30      C        0.78610    0.01430    0.70120    1.000
    C31      C        0.03800    0.19640    0.86993    1.000
    C32      C        0.91060    0.18260    0.83252    1.000
    C33      C        0.67310    0.22270    0.88624    1.000
    C34      C        0.79110    0.23770    0.92594    1.000
    C35      C        0.97880    0.22620    0.91835    1.000
    C36      C        0.11450    0.24650    0.96075    1.000
    C37      C        0.59620    0.59620    0.50000    1.000
    C38      C        0.09620    0.09620    0.00000    1.000
    N1       N        0.22970    0.69630    0.66089    1.000
    N2       N        0.69630    0.22970    0.33911    1.000
    N3       N        0.19630    0.72970    0.16089    1.000
    N4       N        0.72970    0.19630    0.83911    1.000
    O1       O        0.19870    0.88450    0.75907    1.000
    O2       O        0.40300    0.97140    0.81665    1.000
    O3       O        0.19897    0.49103    0.75833    1.000
    O4       O        0.40335    0.40575    0.81531    1.000
    O5       O        0.88450    0.19870    0.24093    1.000
    O6       O        0.97140    0.40300    0.18335    1.000
    O7       O        0.49103    0.19897    0.24167    1.000
    O8       O        0.40575    0.40335    0.18469    1.000
    O9       O        0.38450    0.69870    0.25907    1.000
    O10      O        0.47140    0.90300    0.31665    1.000
    O11      O        0.99103    0.69897    0.25833    1.000
    O12      O        0.90575    0.90335    0.31531    1.000
    O13      O        0.69870    0.38450    0.74093    1.000
    O14      O        0.90300    0.47140    0.68335    1.000
    O15      O        0.69897    0.99103    0.74167    1.000
    O16      O        0.90335    0.90575    0.68469    1.000
