# CIF file generated by openbabel 3.1.0, see https://openbabel.org
data_I
_chemical_name_common 'image0'
_cell_length_a 13.7393
_cell_length_b 13.7393
_cell_length_c 37.2281
_cell_angle_alpha 90
_cell_angle_beta 90
_cell_angle_gamma 90
_space_group_name_H-M_alt 'P 1'
_space_group_name_Hall 'P 1'
loop_
    _symmetry_equiv_pos_as_xyz
    x,y,z
loop_
    _atom_site_label
    _atom_site_type_symbol
    _atom_site_fract_x
    _atom_site_fract_y
    _atom_site_fract_z
    _atom_site_occupancy
    In1      In       0.56080    0.21039    0.41707    1.000
    O1       O        0.61330    0.25040    0.36128    1.000
    O2       O        0.71800    0.23220    0.40360    1.000
    O3       O        0.61880    0.07850    0.44720    1.000
    O4       O        0.55300    0.05670    0.39540    1.000
    O5       O        0.41980    0.17940    0.44860    1.000
    O6       O        0.41270    0.22480    0.39290    1.000
    O7       O        0.03630    0.00780    0.36820    1.000
    O8       O        0.07390    0.92700    0.41670    1.000
    O9       O        0.59600    0.29450    0.46938    1.000
    O10      O        0.54090    0.37440    0.42450    1.000
    C1       C        0.77900    0.28520    0.34640    1.000
    C2       C        0.77580    0.39510    0.33680    1.000
    C3       C        0.87860    0.41480    0.32400    1.000
    H1       H        0.88060    0.39850    0.29840    1.000
    C4       C        0.95150    0.34680    0.34310    1.000
    H2       H        0.99650    0.31750    0.32620    1.000
    H3       H        0.98790    0.38100    0.36150    1.000
    C5       C        0.88310    0.27050    0.35960    1.000
    H4       H        0.90520    0.20580    0.35300    1.000
    H5       H        0.88490    0.27550    0.38550    1.000
    C6       C        0.75900    0.26600    0.30660    1.000
    H6       H        0.75520    0.19760    0.30240    1.000
    H7       H        0.81170    0.29300    0.29250    1.000
    H8       H        0.69930    0.29680    0.29980    1.000
    C7       C        0.69900    0.41870    0.30900    1.000
    H9       H        0.69880    0.48750    0.30450    1.000
    H10      H        0.63630    0.39920    0.31790    1.000
    H11      H        0.71300    0.38440    0.28720    1.000
    C8       C        0.74390    0.45470    0.36860    1.000
    H12      H        0.78920    0.44580    0.38800    1.000
    H13      H        0.68030    0.43410    0.37610    1.000
    H14      H        0.74190    0.52230    0.36210    1.000
    C9       C        0.69970    0.25470    0.37170    1.000
    C10      C        0.59520    0.02300    0.42280    1.000
    C11      C        0.25930    0.18970    0.42380    1.000
    C12      C        0.22150    0.10650    0.40100    1.000
    C13      C        0.11630    0.09460    0.41300    1.000
    H15      H        0.08010    0.14770    0.40160    1.000
    C14      C        0.11910    0.11790    0.45150    1.000
    H16      H        0.12750    0.05980    0.46600    1.000
    H17      H        0.06090    0.15200    0.45910    1.000
    C15      C        0.21010    0.18450    0.45310    1.000
    H18      H        0.18940    0.24960    0.45970    1.000
    H19      H        0.25270    0.16090    0.47200    1.000
    C16      C        0.21200    0.27900    0.40610    1.000
    H20      H        0.14270    0.27460    0.40820    1.000
    H21      H        0.22990    0.28130    0.38120    1.000
    H22      H        0.23440    0.33710    0.41790    1.000
    C17      C        0.21700    0.13000    0.36100    1.000
    H23      H        0.28110    0.14100    0.35200    1.000
    H24      H        0.17830    0.18810    0.35750    1.000
    H25      H        0.18710    0.07710    0.34840    1.000
    C18      C        0.28650    0.02160    0.40330    1.000
    H26      H        0.28760    0.99790    0.42760    1.000
    H27      H        0.35110    0.04020    0.39620    1.000
    H28      H        0.26320    0.97120    0.38760    1.000
    C19      C        0.37250    0.20060    0.42060    1.000
    C20      C        0.07240    0.00100    0.39850    1.000
    C21      C        0.55680    0.46340    0.47910    1.000
    C22      C        0.63300    0.47000    0.50790    1.000
    C23      C        0.55900    0.55830    0.45920    1.000
    C24      C        0.48530    0.44230    0.50960    1.000
    C25      C        0.47900    0.36670    0.53850    1.000
    C26      C        0.56790    0.37290    0.45660    1.000
    In2      In       0.43920    0.78961    0.91707    1.000
    O11      O        0.38670    0.74960    0.86128    1.000
    O12      O        0.28200    0.76780    0.90360    1.000
    O13      O        0.38120    0.92150    0.94720    1.000
    O14      O        0.44700    0.94330    0.89540    1.000
    O15      O        0.58020    0.82060    0.94860    1.000
    O16      O        0.58730    0.77520    0.89290    1.000
    O17      O        0.96370    0.99220    0.86820    1.000
    O18      O        0.92610    0.07300    0.91670    1.000
    O19      O        0.40400    0.70550    0.96938    1.000
    O20      O        0.45910    0.62560    0.92450    1.000
    C27      C        0.22100    0.71480    0.84640    1.000
    C28      C        0.22420    0.60490    0.83680    1.000
    C29      C        0.12140    0.58520    0.82400    1.000
    H29      H        0.11940    0.60150    0.79840    1.000
    C30      C        0.04850    0.65320    0.84310    1.000
    H30      H        0.00350    0.68250    0.82620    1.000
    H31      H        0.01210    0.61900    0.86150    1.000
    C31      C        0.11690    0.72950    0.85960    1.000
    H32      H        0.09480    0.79420    0.85300    1.000
    H33      H        0.11510    0.72450    0.88550    1.000
    C32      C        0.24100    0.73400    0.80660    1.000
    H34      H        0.24480    0.80240    0.80240    1.000
    H35      H        0.18830    0.70700    0.79250    1.000
    H36      H        0.30070    0.70320    0.79980    1.000
    C33      C        0.30100    0.58130    0.80900    1.000
    H37      H        0.30120    0.51250    0.80450    1.000
    H38      H        0.36370    0.60080    0.81790    1.000
    H39      H        0.28700    0.61560    0.78720    1.000
    C34      C        0.25610    0.54530    0.86860    1.000
    H40      H        0.21080    0.55420    0.88800    1.000
    H41      H        0.31970    0.56590    0.87610    1.000
    H42      H        0.25810    0.47770    0.86210    1.000
    C35      C        0.30030    0.74530    0.87170    1.000
    C36      C        0.40480    0.97700    0.92280    1.000
    C37      C        0.74070    0.81030    0.92380    1.000
    C38      C        0.77850    0.89350    0.90100    1.000
    C39      C        0.88370    0.90540    0.91300    1.000
    H43      H        0.91990    0.85230    0.90160    1.000
    C40      C        0.88090    0.88210    0.95150    1.000
    H44      H        0.87250    0.94020    0.96600    1.000
    H45      H        0.93910    0.84800    0.95910    1.000
    C41      C        0.78990    0.81550    0.95310    1.000
    H46      H        0.81060    0.75040    0.95970    1.000
    H47      H        0.74730    0.83910    0.97200    1.000
    C42      C        0.78800    0.72100    0.90610    1.000
    H48      H        0.85730    0.72540    0.90820    1.000
    H49      H        0.77010    0.71870    0.88120    1.000
    H50      H        0.76560    0.66290    0.91790    1.000
    C43      C        0.78300    0.87000    0.86100    1.000
    H51      H        0.71890    0.85900    0.85200    1.000
    H52      H        0.82170    0.81190    0.85750    1.000
    H53      H        0.81290    0.92290    0.84840    1.000
    C44      C        0.71350    0.97840    0.90330    1.000
    H54      H        0.71240    0.00210    0.92760    1.000
    H55      H        0.64890    0.95980    0.89620    1.000
    H56      H        0.73680    0.02880    0.88760    1.000
    C45      C        0.62750    0.79940    0.92060    1.000
    C46      C        0.92760    0.99900    0.89850    1.000
    C47      C        0.44320    0.53660    0.97910    1.000
    C48      C        0.36700    0.53000    0.00790    1.000
    C49      C        0.44100    0.44170    0.95920    1.000
    C50      C        0.51470    0.55770    0.00960    1.000
    C51      C        0.52100    0.63330    0.03850    1.000
    C52      C        0.43210    0.62710    0.95660    1.000
    In3      In       0.28961    0.06080    0.16707    1.000
    O21      O        0.24960    0.11330    0.11128    1.000
    O22      O        0.26780    0.21800    0.15360    1.000
    O23      O        0.42150    0.11880    0.19720    1.000
    O24      O        0.44330    0.05300    0.14540    1.000
    O25      O        0.32060    0.91980    0.19860    1.000
    O26      O        0.27520    0.91270    0.14290    1.000
    O27      O        0.49220    0.53630    0.11820    1.000
    O28      O        0.57300    0.57390    0.16670    1.000
    O29      O        0.20550    0.09600    0.21938    1.000
    O30      O        0.12560    0.04090    0.17450    1.000
    C53      C        0.21480    0.27900    0.09640    1.000
    C54      C        0.10490    0.27580    0.08680    1.000
    C55      C        0.08520    0.37860    0.07400    1.000
    H57      H        0.10150    0.38060    0.04840    1.000
    C56      C        0.15320    0.45150    0.09310    1.000
    H58      H        0.18250    0.49650    0.07620    1.000
    H59      H        0.11900    0.48790    0.11150    1.000
    C57      C        0.22950    0.38310    0.10960    1.000
    H60      H        0.29420    0.40520    0.10300    1.000
    H61      H        0.22450    0.38490    0.13550    1.000
    C58      C        0.23400    0.25900    0.05660    1.000
    H62      H        0.30240    0.25520    0.05240    1.000
    H63      H        0.20700    0.31170    0.04250    1.000
    H64      H        0.20320    0.19930    0.04980    1.000
    C59      C        0.08130    0.19900    0.05900    1.000
    H65      H        0.01250    0.19880    0.05450    1.000
    H66      H        0.10080    0.13630    0.06790    1.000
    H67      H        0.11560    0.21300    0.03720    1.000
    C60      C        0.04530    0.24390    0.11860    1.000
    H68      H        0.05420    0.28920    0.13800    1.000
    H69      H        0.06590    0.18030    0.12610    1.000
    H70      H        0.97770    0.24190    0.11210    1.000
    C61      C        0.24530    0.19970    0.12170    1.000
    C62      C        0.47700    0.09520    0.17280    1.000
    C63      C        0.31030    0.75930    0.17380    1.000
    C64      C        0.39350    0.72150    0.15100    1.000
    C65      C        0.40540    0.61630    0.16300    1.000
    H71      H        0.35230    0.58010    0.15160    1.000
    C66      C        0.38210    0.61910    0.20150    1.000
    H72      H        0.44020    0.62750    0.21600    1.000
    H73      H        0.34800    0.56090    0.20910    1.000
    C67      C        0.31550    0.71010    0.20310    1.000
    H74      H        0.25040    0.68940    0.20970    1.000
    H75      H        0.33910    0.75270    0.22200    1.000
    C68      C        0.22100    0.71200    0.15610    1.000
    H76      H        0.22540    0.64270    0.15820    1.000
    H77      H        0.21870    0.72990    0.13120    1.000
    H78      H        0.16290    0.73440    0.16790    1.000
    C69      C        0.37000    0.71700    0.11100    1.000
    H79      H        0.35900    0.78110    0.10200    1.000
    H80      H        0.31190    0.67830    0.10750    1.000
    H81      H        0.42290    0.68710    0.09840    1.000
    C70      C        0.47840    0.78650    0.15330    1.000
    H82      H        0.50210    0.78760    0.17760    1.000
    H83      H        0.45980    0.85110    0.14620    1.000
    H84      H        0.52880    0.76320    0.13760    1.000
    C71      C        0.29940    0.87250    0.17060    1.000
    C72      C        0.49900    0.57240    0.14850    1.000
    C73      C        0.03660    0.05680    0.22910    1.000
    C74      C        0.03000    0.13300    0.25790    1.000
    C75      C        0.94170    0.05900    0.20920    1.000
    C76      C        0.05770    0.98530    0.25960    1.000
    C77      C        0.13330    0.97900    0.28850    1.000
    C78      C        0.12710    0.06790    0.20660    1.000
    In4      In       0.71039    0.93920    0.66707    1.000
    O31      O        0.75040    0.88670    0.61128    1.000
    O32      O        0.73220    0.78200    0.65360    1.000
    O33      O        0.57850    0.88120    0.69720    1.000
    O34      O        0.55670    0.94700    0.64540    1.000
    O35      O        0.67940    0.08020    0.69860    1.000
    O36      O        0.72480    0.08730    0.64290    1.000
    O37      O        0.50780    0.46370    0.61820    1.000
    O38      O        0.42700    0.42610    0.66670    1.000
    O39      O        0.79450    0.90400    0.71938    1.000
    O40      O        0.87440    0.95910    0.67450    1.000
    C79      C        0.78520    0.72100    0.59640    1.000
    C80      C        0.89510    0.72420    0.58680    1.000
    C81      C        0.91480    0.62140    0.57400    1.000
    H85      H        0.89850    0.61940    0.54840    1.000
    C82      C        0.84680    0.54850    0.59310    1.000
    H86      H        0.81750    0.50350    0.57620    1.000
    H87      H        0.88100    0.51210    0.61150    1.000
    C83      C        0.77050    0.61690    0.60960    1.000
    H88      H        0.70580    0.59480    0.60300    1.000
    H89      H        0.77550    0.61510    0.63550    1.000
    C84      C        0.76600    0.74100    0.55660    1.000
    H90      H        0.69760    0.74480    0.55240    1.000
    H91      H        0.79300    0.68830    0.54250    1.000
    H92      H        0.79680    0.80070    0.54980    1.000
    C85      C        0.91870    0.80100    0.55900    1.000
    H93      H        0.98750    0.80120    0.55450    1.000
    H94      H        0.89920    0.86370    0.56790    1.000
    H95      H        0.88440    0.78700    0.53720    1.000
    C86      C        0.95470    0.75610    0.61860    1.000
    H96      H        0.94580    0.71080    0.63800    1.000
    H97      H        0.93410    0.81970    0.62610    1.000
    H98      H        0.02230    0.75810    0.61210    1.000
    C87      C        0.75470    0.80030    0.62170    1.000
    C88      C        0.52300    0.90480    0.67280    1.000
    C89      C        0.68970    0.24070    0.67380    1.000
    C90      C        0.60650    0.27850    0.65100    1.000
    C91      C        0.59460    0.38370    0.66300    1.000
    H99      H        0.64770    0.41990    0.65160    1.000
    C92      C        0.61790    0.38090    0.70150    1.000
    H100     H        0.55980    0.37250    0.71600    1.000
    H101     H        0.65200    0.43910    0.70910    1.000
    C93      C        0.68450    0.28990    0.70310    1.000
    H102     H        0.74960    0.31060    0.70970    1.000
    H103     H        0.66090    0.24730    0.72200    1.000
    C94      C        0.77900    0.28800    0.65610    1.000
    H104     H        0.77460    0.35730    0.65820    1.000
    H105     H        0.78130    0.27010    0.63120    1.000
    H106     H        0.83710    0.26560    0.66790    1.000
    C95      C        0.63000    0.28300    0.61100    1.000
    H107     H        0.64100    0.21890    0.60200    1.000
    H108     H        0.68810    0.32170    0.60750    1.000
    H109     H        0.57710    0.31290    0.59840    1.000
    C96      C        0.52160    0.21350    0.65330    1.000
    H110     H        0.49790    0.21240    0.67760    1.000
    H111     H        0.54020    0.14890    0.64620    1.000
    H112     H        0.47120    0.23680    0.63760    1.000
    C97      C        0.70060    0.12750    0.67060    1.000
    C98      C        0.50100    0.42760    0.64850    1.000
    C99      C        0.96340    0.94320    0.72910    1.000
    C100     C        0.97000    0.86700    0.75790    1.000
    C101     C        0.05830    0.94100    0.70920    1.000
    C102     C        0.94230    0.01470    0.75960    1.000
    C103     C        0.86670    0.02100    0.78850    1.000
    C104     C        0.87290    0.93210    0.70660    1.000
    In5      In       0.93920    0.71039    0.33293    1.000
    O41      O        0.88670    0.75040    0.38872    1.000
    O42      O        0.78200    0.73220    0.34640    1.000
    O43      O        0.88120    0.57850    0.30280    1.000
    O44      O        0.94700    0.55670    0.35460    1.000
    O45      O        0.08020    0.67940    0.30140    1.000
    O46      O        0.08730    0.72480    0.35710    1.000
    O47      O        0.46370    0.50780    0.38180    1.000
    O48      O        0.42610    0.42700    0.33330    1.000
    O49      O        0.90400    0.79450    0.28062    1.000
    O50      O        0.95910    0.87440    0.32550    1.000
    C105     C        0.72100    0.78520    0.40360    1.000
    C106     C        0.72420    0.89510    0.41320    1.000
    C107     C        0.62140    0.91480    0.42600    1.000
    H113     H        0.61940    0.89850    0.45160    1.000
    C108     C        0.54850    0.84680    0.40690    1.000
    H114     H        0.50350    0.81750    0.42380    1.000
    H115     H        0.51210    0.88100    0.38850    1.000
    C109     C        0.61690    0.77050    0.39040    1.000
    H116     H        0.59480    0.70580    0.39700    1.000
    H117     H        0.61510    0.77550    0.36450    1.000
    C110     C        0.74100    0.76600    0.44340    1.000
    H118     H        0.74480    0.69760    0.44760    1.000
    H119     H        0.68830    0.79300    0.45750    1.000
    H120     H        0.80070    0.79680    0.45020    1.000
    C111     C        0.80100    0.91870    0.44100    1.000
    H121     H        0.80120    0.98750    0.44550    1.000
    H122     H        0.86370    0.89920    0.43210    1.000
    H123     H        0.78700    0.88440    0.46280    1.000
    C112     C        0.75610    0.95470    0.38140    1.000
    H124     H        0.71080    0.94580    0.36200    1.000
    H125     H        0.81970    0.93410    0.37390    1.000
    H126     H        0.75810    0.02230    0.38790    1.000
    C113     C        0.80030    0.75470    0.37830    1.000
    C114     C        0.90480    0.52300    0.32720    1.000
    C115     C        0.24070    0.68970    0.32620    1.000
    C116     C        0.27850    0.60650    0.34900    1.000
    C117     C        0.38370    0.59460    0.33700    1.000
    H127     H        0.41990    0.64770    0.34840    1.000
    C118     C        0.38090    0.61790    0.29850    1.000
    H128     H        0.37250    0.55980    0.28400    1.000
    H129     H        0.43910    0.65200    0.29090    1.000
    C119     C        0.28990    0.68450    0.29690    1.000
    H130     H        0.31060    0.74960    0.29030    1.000
    H131     H        0.24730    0.66090    0.27800    1.000
    C120     C        0.28800    0.77900    0.34390    1.000
    H132     H        0.35730    0.77460    0.34180    1.000
    H133     H        0.27010    0.78130    0.36880    1.000
    H134     H        0.26560    0.83710    0.33210    1.000
    C121     C        0.28300    0.63000    0.38900    1.000
    H135     H        0.21890    0.64100    0.39800    1.000
    H136     H        0.32170    0.68810    0.39250    1.000
    H137     H        0.31290    0.57710    0.40160    1.000
    C122     C        0.21350    0.52160    0.34670    1.000
    H138     H        0.21240    0.49790    0.32240    1.000
    H139     H        0.14890    0.54020    0.35380    1.000
    H140     H        0.23680    0.47120    0.36240    1.000
    C123     C        0.12750    0.70060    0.32940    1.000
    C124     C        0.42760    0.50100    0.35150    1.000
    C125     C        0.94320    0.96340    0.27090    1.000
    C126     C        0.86700    0.97000    0.24210    1.000
    C127     C        0.94100    0.05830    0.29080    1.000
    C128     C        0.01470    0.94230    0.24040    1.000
    C129     C        0.02100    0.86670    0.21150    1.000
    C130     C        0.93210    0.87290    0.29340    1.000
    In6      In       0.06080    0.28961    0.83293    1.000
    O51      O        0.11330    0.24960    0.88872    1.000
    O52      O        0.21800    0.26780    0.84640    1.000
    O53      O        0.11880    0.42150    0.80280    1.000
    O54      O        0.05300    0.44330    0.85460    1.000
    O55      O        0.91980    0.32060    0.80140    1.000
    O56      O        0.91270    0.27520    0.85710    1.000
    O57      O        0.53630    0.49220    0.88180    1.000
    O58      O        0.57390    0.57300    0.83330    1.000
    O59      O        0.09600    0.20550    0.78062    1.000
    O60      O        0.04090    0.12560    0.82550    1.000
    C131     C        0.27900    0.21480    0.90360    1.000
    C132     C        0.27580    0.10490    0.91320    1.000
    C133     C        0.37860    0.08520    0.92600    1.000
    H141     H        0.38060    0.10150    0.95160    1.000
    C134     C        0.45150    0.15320    0.90690    1.000
    H142     H        0.49650    0.18250    0.92380    1.000
    H143     H        0.48790    0.11900    0.88850    1.000
    C135     C        0.38310    0.22950    0.89040    1.000
    H144     H        0.40520    0.29420    0.89700    1.000
    H145     H        0.38490    0.22450    0.86450    1.000
    C136     C        0.25900    0.23400    0.94340    1.000
    H146     H        0.25520    0.30240    0.94760    1.000
    H147     H        0.31170    0.20700    0.95750    1.000
    H148     H        0.19930    0.20320    0.95020    1.000
    C137     C        0.19900    0.08130    0.94100    1.000
    H149     H        0.19880    0.01250    0.94550    1.000
    H150     H        0.13630    0.10080    0.93210    1.000
    H151     H        0.21300    0.11560    0.96280    1.000
    C138     C        0.24390    0.04530    0.88140    1.000
    H152     H        0.28920    0.05420    0.86200    1.000
    H153     H        0.18030    0.06590    0.87390    1.000
    H154     H        0.24190    0.97770    0.88790    1.000
    C139     C        0.19970    0.24530    0.87830    1.000
    C140     C        0.09520    0.47700    0.82720    1.000
    C141     C        0.75930    0.31030    0.82620    1.000
    C142     C        0.72150    0.39350    0.84900    1.000
    C143     C        0.61630    0.40540    0.83700    1.000
    H155     H        0.58010    0.35230    0.84840    1.000
    C144     C        0.61910    0.38210    0.79850    1.000
    H156     H        0.62750    0.44020    0.78400    1.000
    H157     H        0.56090    0.34800    0.79090    1.000
    C145     C        0.71010    0.31550    0.79690    1.000
    H158     H        0.68940    0.25040    0.79030    1.000
    H159     H        0.75270    0.33910    0.77800    1.000
    C146     C        0.71200    0.22100    0.84390    1.000
    H160     H        0.64270    0.22540    0.84180    1.000
    H161     H        0.72990    0.21870    0.86880    1.000
    H162     H        0.73440    0.16290    0.83210    1.000
    C147     C        0.71700    0.37000    0.88900    1.000
    H163     H        0.78110    0.35900    0.89800    1.000
    H164     H        0.67830    0.31190    0.89250    1.000
    H165     H        0.68710    0.42290    0.90160    1.000
    C148     C        0.78650    0.47840    0.84670    1.000
    H166     H        0.78760    0.50210    0.82240    1.000
    H167     H        0.85110    0.45980    0.85380    1.000
    H168     H        0.76320    0.52880    0.86240    1.000
    C149     C        0.87250    0.29940    0.82940    1.000
    C150     C        0.57240    0.49900    0.85150    1.000
    C151     C        0.05680    0.03660    0.77090    1.000
    C152     C        0.13300    0.03000    0.74210    1.000
    C153     C        0.05900    0.94170    0.79080    1.000
    C154     C        0.98530    0.05770    0.74040    1.000
    C155     C        0.97900    0.13330    0.71150    1.000
    C156     C        0.06790    0.12710    0.79340    1.000
    In7      In       0.21039    0.56080    0.58293    1.000
    O61      O        0.25040    0.61330    0.63872    1.000
    O62      O        0.23220    0.71800    0.59640    1.000
    O63      O        0.07850    0.61880    0.55280    1.000
    O64      O        0.05670    0.55300    0.60460    1.000
    O65      O        0.17940    0.41980    0.55140    1.000
    O66      O        0.22480    0.41270    0.60710    1.000
    O67      O        0.00780    0.03630    0.63180    1.000
    O68      O        0.92700    0.07390    0.58330    1.000
    O69      O        0.29450    0.59600    0.53062    1.000
    O70      O        0.37440    0.54090    0.57550    1.000
    C157     C        0.28520    0.77900    0.65360    1.000
    C158     C        0.39510    0.77580    0.66320    1.000
    C159     C        0.41480    0.87860    0.67600    1.000
    H169     H        0.39850    0.88060    0.70160    1.000
    C160     C        0.34680    0.95150    0.65690    1.000
    H170     H        0.31750    0.99650    0.67380    1.000
    H171     H        0.38100    0.98790    0.63850    1.000
    C161     C        0.27050    0.88310    0.64040    1.000
    H172     H        0.20580    0.90520    0.64700    1.000
    H173     H        0.27550    0.88490    0.61450    1.000
    C162     C        0.26600    0.75900    0.69340    1.000
    H174     H        0.19760    0.75520    0.69760    1.000
    H175     H        0.29300    0.81170    0.70750    1.000
    H176     H        0.29680    0.69930    0.70020    1.000
    C163     C        0.41870    0.69900    0.69100    1.000
    H177     H        0.48750    0.69880    0.69550    1.000
    H178     H        0.39920    0.63630    0.68210    1.000
    H179     H        0.38440    0.71300    0.71280    1.000
    C164     C        0.45470    0.74390    0.63140    1.000
    H180     H        0.44580    0.78920    0.61200    1.000
    H181     H        0.43410    0.68030    0.62390    1.000
    H182     H        0.52230    0.74190    0.63790    1.000
    C165     C        0.25470    0.69970    0.62830    1.000
    C166     C        0.02300    0.59520    0.57720    1.000
    C167     C        0.18970    0.25930    0.57620    1.000
    C168     C        0.10650    0.22150    0.59900    1.000
    C169     C        0.09460    0.11630    0.58700    1.000
    H183     H        0.14770    0.08010    0.59840    1.000
    C170     C        0.11790    0.11910    0.54850    1.000
    H184     H        0.05980    0.12750    0.53400    1.000
    H185     H        0.15200    0.06090    0.54090    1.000
    C171     C        0.18450    0.21010    0.54690    1.000
    H186     H        0.24960    0.18940    0.54030    1.000
    H187     H        0.16090    0.25270    0.52800    1.000
    C172     C        0.27900    0.21200    0.59390    1.000
    H188     H        0.27460    0.14270    0.59180    1.000
    H189     H        0.28130    0.22990    0.61880    1.000
    H190     H        0.33710    0.23440    0.58210    1.000
    C173     C        0.13000    0.21700    0.63900    1.000
    H191     H        0.14100    0.28110    0.64800    1.000
    H192     H        0.18810    0.17830    0.64250    1.000
    H193     H        0.07710    0.18710    0.65160    1.000
    C174     C        0.02160    0.28650    0.59670    1.000
    H194     H        0.99790    0.28760    0.57240    1.000
    H195     H        0.04020    0.35110    0.60380    1.000
    H196     H        0.97120    0.26320    0.61240    1.000
    C175     C        0.20060    0.37250    0.57940    1.000
    C176     C        0.00100    0.07240    0.60150    1.000
    C177     C        0.46340    0.55680    0.52090    1.000
    C178     C        0.47000    0.63300    0.49210    1.000
    C179     C        0.55830    0.55900    0.54080    1.000
    C180     C        0.44230    0.48530    0.49040    1.000
    C181     C        0.36670    0.47900    0.46150    1.000
    C182     C        0.37290    0.56790    0.54340    1.000
    In8      In       0.78961    0.43920    0.08293    1.000
    O71      O        0.74960    0.38670    0.13872    1.000
    O72      O        0.76780    0.28200    0.09640    1.000
    O73      O        0.92150    0.38120    0.05280    1.000
    O74      O        0.94330    0.44700    0.10460    1.000
    O75      O        0.82060    0.58020    0.05140    1.000
    O76      O        0.77520    0.58730    0.10710    1.000
    O77      O        0.99220    0.96370    0.13180    1.000
    O78      O        0.07300    0.92610    0.08330    1.000
    O79      O        0.70550    0.40400    0.03062    1.000
    O80      O        0.62560    0.45910    0.07550    1.000
    C183     C        0.71480    0.22100    0.15360    1.000
    C184     C        0.60490    0.22420    0.16320    1.000
    C185     C        0.58520    0.12140    0.17600    1.000
    H197     H        0.60150    0.11940    0.20160    1.000
    C186     C        0.65320    0.04850    0.15690    1.000
    H198     H        0.68250    0.00350    0.17380    1.000
    H199     H        0.61900    0.01210    0.13850    1.000
    C187     C        0.72950    0.11690    0.14040    1.000
    H200     H        0.79420    0.09480    0.14700    1.000
    H201     H        0.72450    0.11510    0.11450    1.000
    C188     C        0.73400    0.24100    0.19340    1.000
    H202     H        0.80240    0.24480    0.19760    1.000
    H203     H        0.70700    0.18830    0.20750    1.000
    H204     H        0.70320    0.30070    0.20020    1.000
    C189     C        0.58130    0.30100    0.19100    1.000
    H205     H        0.51250    0.30120    0.19550    1.000
    H206     H        0.60080    0.36370    0.18210    1.000
    H207     H        0.61560    0.28700    0.21280    1.000
    C190     C        0.54530    0.25610    0.13140    1.000
    H208     H        0.55420    0.21080    0.11200    1.000
    H209     H        0.56590    0.31970    0.12390    1.000
    H210     H        0.47770    0.25810    0.13790    1.000
    C191     C        0.74530    0.30030    0.12830    1.000
    C192     C        0.97700    0.40480    0.07720    1.000
    C193     C        0.81030    0.74070    0.07620    1.000
    C194     C        0.89350    0.77850    0.09900    1.000
    C195     C        0.90540    0.88370    0.08700    1.000
    H211     H        0.85230    0.91990    0.09840    1.000
    C196     C        0.88210    0.88090    0.04850    1.000
    H212     H        0.94020    0.87250    0.03400    1.000
    H213     H        0.84800    0.93910    0.04090    1.000
    C197     C        0.81550    0.78990    0.04690    1.000
    H214     H        0.75040    0.81060    0.04030    1.000
    H215     H        0.83910    0.74730    0.02800    1.000
    C198     C        0.72100    0.78800    0.09390    1.000
    H216     H        0.72540    0.85730    0.09180    1.000
    H217     H        0.71870    0.77010    0.11880    1.000
    H218     H        0.66290    0.76560    0.08210    1.000
    C199     C        0.87000    0.78300    0.13900    1.000
    H219     H        0.85900    0.71890    0.14800    1.000
    H220     H        0.81190    0.82170    0.14250    1.000
    H221     H        0.92290    0.81290    0.15160    1.000
    C200     C        0.97840    0.71350    0.09670    1.000
    H222     H        0.00210    0.71240    0.07240    1.000
    H223     H        0.95980    0.64890    0.10380    1.000
    H224     H        0.02880    0.73680    0.11240    1.000
    C201     C        0.79940    0.62750    0.07940    1.000
    C202     C        0.99900    0.92760    0.10150    1.000
    C203     C        0.53660    0.44320    0.02090    1.000
    C204     C        0.53000    0.36700    0.99210    1.000
    C205     C        0.44170    0.44100    0.04080    1.000
    C206     C        0.55770    0.51470    0.99040    1.000
    C207     C        0.63330    0.52100    0.96150    1.000
    C208     C        0.62710    0.43210    0.04340    1.000
    C209     C        0.39450    0.39450    0.50000    1.000
    C210     C        0.60550    0.60550    0.00000    1.000
    C211     C        0.10550    0.89450    0.25000    1.000
    C212     C        0.89450    0.10550    0.75000    1.000
