# CIF file generated by openbabel 3.1.0, see https://openbabel.org
data_I
_chemical_name_common 'image0'
_cell_length_a 10.0532
_cell_length_b 17.7273
_cell_length_c 14.4451
_cell_angle_alpha 90
_cell_angle_beta 99.1201
_cell_angle_gamma 90
_space_group_name_H-M_alt 'P 1'
_space_group_name_Hall 'P 1'
loop_
    _symmetry_equiv_pos_as_xyz
    x,y,z
loop_
    _atom_site_label
    _atom_site_type_symbol
    _atom_site_fract_x
    _atom_site_fract_y
    _atom_site_fract_z
    _atom_site_occupancy
    Eu1      Eu       0.49671    0.12472    0.15635    1.000
    Eu2      Eu       0.51861    0.84091    0.40800    1.000
    O1       O        0.36990    0.93820    0.32710    1.000
    O2       O        0.58220    0.88860    0.25950    1.000
    O3       O        0.61470    0.00380    0.20210    1.000
    O4       O        0.38940    0.05100    0.26260    1.000
    C1       C        0.55320    0.95690    0.24300    1.000
    C2       C        0.42510    0.98490    0.28050    1.000
    O5       O        0.74040    0.14250    0.16040    1.000
    O6       O        0.56490    0.25470    0.12380    1.000
    O7       O        0.31340    0.18080    0.04490    1.000
    O8       O        0.33620    0.20210    0.22860    1.000
    O9       O        0.57300    0.08920    0.00930    1.000
    O10      O        0.41760    0.91650    0.52120    1.000
    O11      O        0.14230    0.26340    0.02260    1.000
    O12      O        0.90510    0.21680    0.12590    1.000
    O13      O        0.62100    0.98730    0.92830    1.000
    O14      O        0.15870    0.28060    0.20640    1.000
    O15      O        0.73340    0.32940    0.09380    1.000
    C3       C        0.24310    0.23700    0.17920    1.000
    C4       C        0.78520    0.20300    0.13570    1.000
    C5       C        0.55740    0.02210    0.98180    1.000
    C6       C        0.23150    0.22650    0.07270    1.000
    C7       C        0.68460    0.26820    0.11610    1.000
    C8       C        0.43880    0.98580    0.52200    1.000
    O16      O        0.37410    0.03570    0.55760    1.000
    Eu3      Eu       0.00329    0.62472    0.34365    1.000
    Eu4      Eu       0.98139    0.34091    0.09200    1.000
    O17      O        0.13010    0.43820    0.17290    1.000
    O18      O        0.91780    0.38860    0.24050    1.000
    O19      O        0.88530    0.50380    0.29790    1.000
    O20      O        0.11060    0.55100    0.23740    1.000
    C9       C        0.94680    0.45690    0.25700    1.000
    C10      C        0.07490    0.48490    0.21950    1.000
    O21      O        0.75960    0.64250    0.33960    1.000
    O22      O        0.93510    0.75470    0.37620    1.000
    O23      O        0.18660    0.68080    0.45510    1.000
    O24      O        0.16380    0.70210    0.27140    1.000
    O25      O        0.92700    0.58920    0.49070    1.000
    O26      O        0.08240    0.41650    0.97880    1.000
    O27      O        0.35770    0.76340    0.47740    1.000
    O28      O        0.59490    0.71680    0.37410    1.000
    O29      O        0.87900    0.48730    0.57170    1.000
    O30      O        0.34130    0.78060    0.29360    1.000
    O31      O        0.76660    0.82940    0.40620    1.000
    C11      C        0.25690    0.73700    0.32080    1.000
    C12      C        0.71480    0.70300    0.36430    1.000
    C13      C        0.94260    0.52210    0.51820    1.000
    C14      C        0.26850    0.72650    0.42730    1.000
    C15      C        0.81540    0.76820    0.38390    1.000
    C16      C        0.06120    0.48580    0.97800    1.000
    O32      O        0.12590    0.53570    0.94240    1.000
    Eu5      Eu       0.50329    0.87528    0.84365    1.000
    Eu6      Eu       0.48139    0.15909    0.59200    1.000
    O33      O        0.63010    0.06180    0.67290    1.000
    O34      O        0.41780    0.11140    0.74050    1.000
    O35      O        0.38530    0.99620    0.79790    1.000
    O36      O        0.61060    0.94900    0.73740    1.000
    C17      C        0.44680    0.04310    0.75700    1.000
    C18      C        0.57490    0.01510    0.71950    1.000
    O37      O        0.25960    0.85750    0.83960    1.000
    O38      O        0.43510    0.74530    0.87620    1.000
    O39      O        0.68660    0.81920    0.95510    1.000
    O40      O        0.66380    0.79790    0.77140    1.000
    O41      O        0.42700    0.91080    0.99070    1.000
    O42      O        0.58240    0.08350    0.47880    1.000
    O43      O        0.85770    0.73660    0.97740    1.000
    O44      O        0.09490    0.78320    0.87410    1.000
    O45      O        0.37900    0.01270    0.07170    1.000
    O46      O        0.84130    0.71940    0.79360    1.000
    O47      O        0.26660    0.67060    0.90620    1.000
    C19      C        0.75690    0.76300    0.82080    1.000
    C20      C        0.21480    0.79700    0.86430    1.000
    C21      C        0.44260    0.97790    0.01820    1.000
    C22      C        0.76850    0.77350    0.92730    1.000
    C23      C        0.31540    0.73180    0.88390    1.000
    C24      C        0.56120    0.01420    0.47800    1.000
    O48      O        0.62590    0.96430    0.44240    1.000
    Eu7      Eu       0.99671    0.37528    0.65635    1.000
    Eu8      Eu       0.01861    0.65909    0.90800    1.000
    O49      O        0.86990    0.56180    0.82710    1.000
    O50      O        0.08220    0.61140    0.75950    1.000
    O51      O        0.11470    0.49620    0.70210    1.000
    O52      O        0.88940    0.44900    0.76260    1.000
    C25      C        0.05320    0.54310    0.74300    1.000
    C26      C        0.92510    0.51510    0.78050    1.000
    O53      O        0.24040    0.35750    0.66040    1.000
    O54      O        0.06490    0.24530    0.62380    1.000
    O55      O        0.81340    0.31920    0.54490    1.000
    O56      O        0.83620    0.29790    0.72860    1.000
    O57      O        0.07300    0.41080    0.50930    1.000
    O58      O        0.91760    0.58350    0.02120    1.000
    O59      O        0.64230    0.23660    0.52260    1.000
    O60      O        0.40510    0.28320    0.62590    1.000
    O61      O        0.12100    0.51270    0.42830    1.000
    O62      O        0.65870    0.21940    0.70640    1.000
    O63      O        0.23340    0.17060    0.59380    1.000
    C27      C        0.74310    0.26300    0.67920    1.000
    C28      C        0.28520    0.29700    0.63570    1.000
    C29      C        0.05740    0.47790    0.48180    1.000
    C30      C        0.73150    0.27350    0.57270    1.000
    C31      C        0.18460    0.23180    0.61610    1.000
    C32      C        0.93880    0.51420    0.02200    1.000
    O64      O        0.87410    0.46430    0.05760    1.000
