# CIF file generated by openbabel 3.1.0, see https://openbabel.org
data_I
_chemical_name_common 'SAMLAV_clean5b'
_cell_length_a 7.4466
_cell_length_b 14.3821
_cell_length_c 20.914
_cell_angle_alpha 90
_cell_angle_beta 90
_cell_angle_gamma 90
_space_group_name_H-M_alt 'P 1'
_space_group_name_Hall 'P 1'
loop_
    _symmetry_equiv_pos_as_xyz
    x,y,z
loop_
    _atom_site_label
    _atom_site_type_symbol
    _atom_site_fract_x
    _atom_site_fract_y
    _atom_site_fract_z
    _atom_site_occupancy
    Cd1      Cd       0.49001    0.11007    0.07558    1.000
    Cd2      Cd       0.48697    0.89034    0.92446    1.000
    Cd3      Cd       0.49269    0.60996    0.42482    1.000
    Cd4      Cd       0.49848    0.38937    0.57575    1.000
    H1       H        0.82325    0.23731    0.01931    1.000
    H2       H        0.82270    0.97878    0.11533    1.000
    H3       H        0.82035    0.76149    0.96900    1.000
    H4       H        0.82054    0.03316    0.89196    1.000
    H5       H        0.16004    0.73796    0.47969    1.000
    H6       H        0.15721    0.47736    0.38638    1.000
    H7       H        0.16518    0.26068    0.52125    1.000
    H8       H        0.16517    0.52148    0.61434    1.000
    H9       H        0.15394    0.76173    0.96902    1.000
    H10      H        0.15201    0.03399    0.89305    1.000
    H11      H        0.15710    0.23727    0.01979    1.000
    H12      H        0.15450    0.97819    0.11508    1.000
    H13      H        0.83122    0.26100    0.52124    1.000
    H14      H        0.83355    0.52246    0.61338    1.000
    H15      H        0.82610    0.73816    0.48009    1.000
    H16      H        0.82551    0.47823    0.38586    1.000
    H17      H        0.59749    0.20067    0.40441    1.000
    H18      H        0.39348    0.44579    0.31274    1.000
    H19      H        0.40220    0.36802    0.20931    1.000
    H20      H        0.38033    0.79646    0.59617    1.000
    H21      H        0.60115    0.55522    0.68761    1.000
    H22      H        0.59008    0.63342    0.79106    1.000
    H23      H        0.58959    0.70012    0.09527    1.000
    H24      H        0.39286    0.94600    0.18794    1.000
    H25      H        0.40470    0.86825    0.29133    1.000
    H26      H        0.60558    0.29653    0.90424    1.000
    H27      H        0.38082    0.05575    0.81346    1.000
    H28      H        0.39262    0.13355    0.70979    1.000
    C1       C        0.89384    0.17867    0.03971    1.000
    C2       C        0.89340    0.03564    0.09275    1.000
    C3       C        0.89108    0.82289    0.95294    1.000
    C4       C        0.89071    0.97324    0.91057    1.000
    C5       C        0.08885    0.67910    0.45985    1.000
    C6       C        0.08766    0.53512    0.40809    1.000
    C7       C        0.09449    0.31981    0.54092    1.000
    C8       C        0.09471    0.46410    0.59232    1.000
    C9       C        0.08292    0.82306    0.95301    1.000
    C10      C        0.08246    0.97356    0.91094    1.000
    C11      C        0.08600    0.17869    0.04005    1.000
    C12      C        0.08492    0.03553    0.09288    1.000
    C13      C        0.90231    0.32003    0.54088    1.000
    C14      C        0.90322    0.46450    0.59199    1.000
    C15      C        0.89667    0.67920    0.46011    1.000
    C16      C        0.89616    0.53539    0.40809    1.000
    C17      C        0.50421    0.23720    0.24515    1.000
    C18      C        0.56008    0.19080    0.30203    1.000
    C19      C        0.55297    0.23717    0.36197    1.000
    C20      C        0.49671    0.33038    0.36749    1.000
    C21      C        0.44335    0.37565    0.31091    1.000
    C22      C        0.44735    0.33027    0.25113    1.000
    C23      C        0.49762    0.18976    0.18037    1.000
    C24      C        0.49521    0.37917    0.43181    1.000
    C25      C        0.47875    0.76209    0.75527    1.000
    C26      C        0.41847    0.80724    0.69851    1.000
    C27      C        0.42820    0.76099    0.63857    1.000
    C28      C        0.49065    0.66888    0.63301    1.000
    C29      C        0.54740    0.62459    0.68953    1.000
    C30      C        0.54160    0.67007    0.74928    1.000
    C31      C        0.48344    0.80993    0.81992    1.000
    C32      C        0.49435    0.62013    0.56872    1.000
    C33      C        0.50342    0.73703    0.25504    1.000
    C34      C        0.55628    0.69042    0.19787    1.000
    C35      C        0.54734    0.73679    0.13793    1.000
    C36      C        0.49218    0.83022    0.13265    1.000
    C37      C        0.44181    0.87567    0.18952    1.000
    C38      C        0.44761    0.83031    0.24930    1.000
    C39      C        0.49862    0.68962    0.31991    1.000
    C40      C        0.48891    0.87914    0.06834    1.000
    C41      C        0.50594    0.26194    0.74528    1.000
    C42      C        0.56706    0.30710    0.80192    1.000
    C43      C        0.55702    0.26110    0.86193    1.000
    C44      C        0.49341    0.16923    0.86768    1.000
    C45      C        0.43570    0.12491    0.81131    1.000
    C46      C        0.44184    0.17017    0.75147    1.000
    C47      C        0.50169    0.30955    0.68054    1.000
    C48      C        0.48948    0.12078    0.93205    1.000
    N1       N        0.79732    0.10730    0.06642    1.000
    N2       N        0.79456    0.89777    0.93140    1.000
    N3       N        0.18468    0.60726    0.43342    1.000
    N4       N        0.19092    0.39168    0.56703    1.000
    N5       N        0.17912    0.89818    0.93170    1.000
    N6       N        0.18190    0.10733    0.06704    1.000
    N7       N        0.80635    0.39219    0.56682    1.000
    N8       N        0.80010    0.60750    0.43387    1.000
    N9       N        0.63141    0.09812    0.29994    1.000
    N10      N        0.33885    0.89808    0.70081    1.000
    N11      N        0.62635    0.59746    0.19959    1.000
    N12      N        0.64781    0.39767    0.79941    1.000
    O1       O        0.49732    0.10236    0.17337    1.000
    O2       O        0.49007    0.23305    0.12745    1.000
    O3       O        0.76032    0.07798    0.26028    1.000
    O6       O        0.36713    0.95675    0.65453    1.000
    O9       O        0.58455    0.53882    0.15461    1.000
    O12      O        0.62076    0.45653    0.84566    1.000
    O13      O        0.48744    0.89742    0.82654    1.000
    O14      O        0.48531    0.76696    0.87305    1.000
    O15      O        0.21223    0.91567    0.74196    1.000
    O18      O        0.59230    0.03932    0.34513    1.000
    O19      O        0.49830    0.39702    0.67370    1.000
    O20      O        0.49958    0.26634    0.62752    1.000
    O21      O        0.77419    0.41475    0.75807    1.000
    O22      O        0.49829    0.60222    0.32697    1.000
    O23      O        0.49256    0.73294    0.37285    1.000
    O24      O        0.75666    0.57685    0.23855    1.000
    O25      O        0.49406    0.46804    0.43620    1.000
    O26      O        0.49824    0.33188    0.48405    1.000
    O27      O        0.49628    0.53127    0.56432    1.000
    O28      O        0.49215    0.66746    0.51650    1.000
    O29      O        0.48896    0.96804    0.06407    1.000
    O30      O        0.48859    0.83198    0.01599    1.000
    O31      O        0.48811    0.03197    0.93674    1.000
    O32      O        0.49118    0.16825    0.98418    1.000
