# CIF file generated by openbabel 3.1.0, see https://openbabel.org
data_I
_chemical_name_common 'image0'
_cell_length_a 12.3214
_cell_length_b 12.3214
_cell_length_c 26.0026
_cell_angle_alpha 90
_cell_angle_beta 90
_cell_angle_gamma 90
_space_group_name_H-M_alt 'P 1'
_space_group_name_Hall 'P 1'
loop_
    _symmetry_equiv_pos_as_xyz
    x,y,z
loop_
    _atom_site_label
    _atom_site_type_symbol
    _atom_site_fract_x
    _atom_site_fract_y
    _atom_site_fract_z
    _atom_site_occupancy
    Co1      Co       0.19367    0.29859    0.31598    1.000
    C1       C        0.17660    0.38190    0.40440    1.000
    C2       C        0.17040    0.44200    0.45400    1.000
    C3       C        0.16100    0.55590    0.45440    1.000
    H1       H        0.15780    0.59490    0.42380    1.000
    C4       C        0.29570    0.01130    0.25370    1.000
    H2       H        0.31740    0.96950    0.22580    1.000
    C5       C        0.24970    0.05800    0.32790    1.000
    N1       N        0.24600    0.14770    0.29954    1.000
    N2       N        0.28140    0.97020    0.30100    1.000
    N3       N        0.22140    0.05490    0.37870    1.000
    H3       H        0.19980    0.11310    0.39390    1.000
    H4       H        0.22520    0.99490    0.39550    1.000
    N4       N        0.27630    0.11580    0.25042    1.000
    O1       O        0.16890    0.28120    0.40350    1.000
    O2       O        0.18880    0.43650    0.36294    1.000
    Co2      Co       0.69367    0.79859    0.81598    1.000
    C6       C        0.67660    0.88190    0.90440    1.000
    C7       C        0.67040    0.94200    0.95400    1.000
    C8       C        0.66100    0.05590    0.95440    1.000
    H5       H        0.65780    0.09490    0.92380    1.000
    C9       C        0.79570    0.51130    0.75370    1.000
    H6       H        0.81740    0.46950    0.72580    1.000
    C10      C        0.74970    0.55800    0.82790    1.000
    N5       N        0.74600    0.64770    0.79954    1.000
    N6       N        0.78140    0.47020    0.80100    1.000
    N7       N        0.72140    0.55490    0.87870    1.000
    H7       H        0.69980    0.61310    0.89390    1.000
    H8       H        0.72520    0.49490    0.89550    1.000
    N8       N        0.77630    0.61580    0.75042    1.000
    O3       O        0.66890    0.78120    0.90350    1.000
    O4       O        0.68880    0.93650    0.86294    1.000
    Co3      Co       0.80633    0.70141    0.31598    1.000
    C11      C        0.82340    0.61810    0.40440    1.000
    C12      C        0.82960    0.55800    0.45400    1.000
    C13      C        0.83900    0.44410    0.45440    1.000
    H9       H        0.84220    0.40510    0.42380    1.000
    C14      C        0.70430    0.98870    0.25370    1.000
    H10      H        0.68260    0.03050    0.22580    1.000
    C15      C        0.75030    0.94200    0.32790    1.000
    N9       N        0.75400    0.85230    0.29954    1.000
    N10      N        0.71860    0.02980    0.30100    1.000
    N11      N        0.77860    0.94510    0.37870    1.000
    H11      H        0.80020    0.88690    0.39390    1.000
    H12      H        0.77480    0.00510    0.39550    1.000
    N12      N        0.72370    0.88420    0.25042    1.000
    O5       O        0.83110    0.71880    0.40350    1.000
    O6       O        0.81120    0.56350    0.36294    1.000
    Co4      Co       0.30633    0.20141    0.81598    1.000
    C16      C        0.32340    0.11810    0.90440    1.000
    C17      C        0.32960    0.05800    0.95400    1.000
    C18      C        0.33900    0.94410    0.95440    1.000
    H13      H        0.34220    0.90510    0.92380    1.000
    C19      C        0.20430    0.48870    0.75370    1.000
    H14      H        0.18260    0.53050    0.72580    1.000
    C20      C        0.25030    0.44200    0.82790    1.000
    N13      N        0.25400    0.35230    0.79954    1.000
    N14      N        0.21860    0.52980    0.80100    1.000
    N15      N        0.27860    0.44510    0.87870    1.000
    H15      H        0.30020    0.38690    0.89390    1.000
    H16      H        0.27480    0.50510    0.89550    1.000
    N16      N        0.22370    0.38420    0.75042    1.000
    O7       O        0.33110    0.21880    0.90350    1.000
    O8       O        0.31120    0.06350    0.86294    1.000
    Co5      Co       0.70141    0.19367    0.31598    1.000
    C21      C        0.61810    0.17660    0.40440    1.000
    C22      C        0.55800    0.17040    0.45400    1.000
    C23      C        0.44410    0.16100    0.45440    1.000
    H17      H        0.40510    0.15780    0.42380    1.000
    C24      C        0.98870    0.29570    0.25370    1.000
    H18      H        0.03050    0.31740    0.22580    1.000
    C25      C        0.94200    0.24970    0.32790    1.000
    N17      N        0.85230    0.24600    0.29954    1.000
    N18      N        0.02980    0.28140    0.30100    1.000
    N19      N        0.94510    0.22140    0.37870    1.000
    H19      H        0.88690    0.19980    0.39390    1.000
    H20      H        0.00510    0.22520    0.39550    1.000
    N20      N        0.88420    0.27630    0.25042    1.000
    O9       O        0.71880    0.16890    0.40350    1.000
    O10      O        0.56350    0.18880    0.36294    1.000
    Co6      Co       0.20141    0.69367    0.81598    1.000
    C26      C        0.11810    0.67660    0.90440    1.000
    C27      C        0.05800    0.67040    0.95400    1.000
    C28      C        0.94410    0.66100    0.95440    1.000
    H21      H        0.90510    0.65780    0.92380    1.000
    C29      C        0.48870    0.79570    0.75370    1.000
    H22      H        0.53050    0.81740    0.72580    1.000
    C30      C        0.44200    0.74970    0.82790    1.000
    N21      N        0.35230    0.74600    0.79954    1.000
    N22      N        0.52980    0.78140    0.80100    1.000
    N23      N        0.44510    0.72140    0.87870    1.000
    H23      H        0.38690    0.69980    0.89390    1.000
    H24      H        0.50510    0.72520    0.89550    1.000
    N24      N        0.38420    0.77630    0.75042    1.000
    O11      O        0.21880    0.66890    0.90350    1.000
    O12      O        0.06350    0.68880    0.86294    1.000
    Co7      Co       0.29859    0.80633    0.31598    1.000
    C31      C        0.38190    0.82340    0.40440    1.000
    C32      C        0.44200    0.82960    0.45400    1.000
    C33      C        0.55590    0.83900    0.45440    1.000
    H25      H        0.59490    0.84220    0.42380    1.000
    C34      C        0.01130    0.70430    0.25370    1.000
    H26      H        0.96950    0.68260    0.22580    1.000
    C35      C        0.05800    0.75030    0.32790    1.000
    N25      N        0.14770    0.75400    0.29954    1.000
    N26      N        0.97020    0.71860    0.30100    1.000
    N27      N        0.05490    0.77860    0.37870    1.000
    H27      H        0.11310    0.80020    0.39390    1.000
    H28      H        0.99490    0.77480    0.39550    1.000
    N28      N        0.11580    0.72370    0.25042    1.000
    O13      O        0.28120    0.83110    0.40350    1.000
    O14      O        0.43650    0.81120    0.36294    1.000
    Co8      Co       0.79859    0.30633    0.81598    1.000
    C36      C        0.88190    0.32340    0.90440    1.000
    C37      C        0.94200    0.32960    0.95400    1.000
    C38      C        0.05590    0.33900    0.95440    1.000
    H29      H        0.09490    0.34220    0.92380    1.000
    C39      C        0.51130    0.20430    0.75370    1.000
    H30      H        0.46950    0.18260    0.72580    1.000
    C40      C        0.55800    0.25030    0.82790    1.000
    N29      N        0.64770    0.25400    0.79954    1.000
    N30      N        0.47020    0.21860    0.80100    1.000
    N31      N        0.55490    0.27860    0.87870    1.000
    H31      H        0.61310    0.30020    0.89390    1.000
    H32      H        0.49490    0.27480    0.89550    1.000
    N32      N        0.61580    0.22370    0.75042    1.000
    O15      O        0.78120    0.33110    0.90350    1.000
    O16      O        0.93650    0.31120    0.86294    1.000
    Co9      Co       0.80633    0.70141    0.68402    1.000
    C41      C        0.82340    0.61810    0.59560    1.000
    C42      C        0.82960    0.55800    0.54600    1.000
    C43      C        0.83900    0.44410    0.54560    1.000
    H33      H        0.84220    0.40510    0.57620    1.000
    C44      C        0.70430    0.98870    0.74630    1.000
    H34      H        0.68260    0.03050    0.77420    1.000
    C45      C        0.75030    0.94200    0.67210    1.000
    N33      N        0.75400    0.85230    0.70046    1.000
    N34      N        0.71860    0.02980    0.69900    1.000
    N35      N        0.77860    0.94510    0.62130    1.000
    H35      H        0.80020    0.88690    0.60610    1.000
    H36      H        0.77480    0.00510    0.60450    1.000
    N36      N        0.72370    0.88420    0.74958    1.000
    O17      O        0.83110    0.71880    0.59650    1.000
    O18      O        0.81120    0.56350    0.63706    1.000
    Co10     Co       0.30633    0.20141    0.18402    1.000
    C46      C        0.32340    0.11810    0.09560    1.000
    C47      C        0.32960    0.05800    0.04600    1.000
    C48      C        0.33900    0.94410    0.04560    1.000
    H37      H        0.34220    0.90510    0.07620    1.000
    C49      C        0.20430    0.48870    0.24630    1.000
    H38      H        0.18260    0.53050    0.27420    1.000
    C50      C        0.25030    0.44200    0.17210    1.000
    N37      N        0.25400    0.35230    0.20046    1.000
    N38      N        0.21860    0.52980    0.19900    1.000
    N39      N        0.27860    0.44510    0.12130    1.000
    H39      H        0.30020    0.38690    0.10610    1.000
    H40      H        0.27480    0.50510    0.10450    1.000
    N40      N        0.22370    0.38420    0.24958    1.000
    O19      O        0.33110    0.21880    0.09650    1.000
    O20      O        0.31120    0.06350    0.13706    1.000
    Co11     Co       0.19367    0.29859    0.68402    1.000
    C51      C        0.17660    0.38190    0.59560    1.000
    C52      C        0.17040    0.44200    0.54600    1.000
    C53      C        0.16100    0.55590    0.54560    1.000
    H41      H        0.15780    0.59490    0.57620    1.000
    C54      C        0.29570    0.01130    0.74630    1.000
    H42      H        0.31740    0.96950    0.77420    1.000
    C55      C        0.24970    0.05800    0.67210    1.000
    N41      N        0.24600    0.14770    0.70046    1.000
    N42      N        0.28140    0.97020    0.69900    1.000
    N43      N        0.22140    0.05490    0.62130    1.000
    H43      H        0.19980    0.11310    0.60610    1.000
    H44      H        0.22520    0.99490    0.60450    1.000
    N44      N        0.27630    0.11580    0.74958    1.000
    O21      O        0.16890    0.28120    0.59650    1.000
    O22      O        0.18880    0.43650    0.63706    1.000
    Co12     Co       0.69367    0.79859    0.18402    1.000
    C56      C        0.67660    0.88190    0.09560    1.000
    C57      C        0.67040    0.94200    0.04600    1.000
    C58      C        0.66100    0.05590    0.04560    1.000
    H45      H        0.65780    0.09490    0.07620    1.000
    C59      C        0.79570    0.51130    0.24630    1.000
    H46      H        0.81740    0.46950    0.27420    1.000
    C60      C        0.74970    0.55800    0.17210    1.000
    N45      N        0.74600    0.64770    0.20046    1.000
    N46      N        0.78140    0.47020    0.19900    1.000
    N47      N        0.72140    0.55490    0.12130    1.000
    H47      H        0.69980    0.61310    0.10610    1.000
    H48      H        0.72520    0.49490    0.10450    1.000
    N48      N        0.77630    0.61580    0.24958    1.000
    O23      O        0.66890    0.78120    0.09650    1.000
    O24      O        0.68880    0.93650    0.13706    1.000
    Co13     Co       0.29859    0.80633    0.68402    1.000
    C61      C        0.38190    0.82340    0.59560    1.000
    C62      C        0.44200    0.82960    0.54600    1.000
    C63      C        0.55590    0.83900    0.54560    1.000
    H49      H        0.59490    0.84220    0.57620    1.000
    C64      C        0.01130    0.70430    0.74630    1.000
    H50      H        0.96950    0.68260    0.77420    1.000
    C65      C        0.05800    0.75030    0.67210    1.000
    N49      N        0.14770    0.75400    0.70046    1.000
    N50      N        0.97020    0.71860    0.69900    1.000
    N51      N        0.05490    0.77860    0.62130    1.000
    H51      H        0.11310    0.80020    0.60610    1.000
    H52      H        0.99490    0.77480    0.60450    1.000
    N52      N        0.11580    0.72370    0.74958    1.000
    O25      O        0.28120    0.83110    0.59650    1.000
    O26      O        0.43650    0.81120    0.63706    1.000
    Co14     Co       0.79859    0.30633    0.18402    1.000
    C66      C        0.88190    0.32340    0.09560    1.000
    C67      C        0.94200    0.32960    0.04600    1.000
    C68      C        0.05590    0.33900    0.04560    1.000
    H53      H        0.09490    0.34220    0.07620    1.000
    C69      C        0.51130    0.20430    0.24630    1.000
    H54      H        0.46950    0.18260    0.27420    1.000
    C70      C        0.55800    0.25030    0.17210    1.000
    N53      N        0.64770    0.25400    0.20046    1.000
    N54      N        0.47020    0.21860    0.19900    1.000
    N55      N        0.55490    0.27860    0.12130    1.000
    H55      H        0.61310    0.30020    0.10610    1.000
    H56      H        0.49490    0.27480    0.10450    1.000
    N56      N        0.61580    0.22370    0.24958    1.000
    O27      O        0.78120    0.33110    0.09650    1.000
    O28      O        0.93650    0.31120    0.13706    1.000
    Co15     Co       0.70141    0.19367    0.68402    1.000
    C71      C        0.61810    0.17660    0.59560    1.000
    C72      C        0.55800    0.17040    0.54600    1.000
    C73      C        0.44410    0.16100    0.54560    1.000
    H57      H        0.40510    0.15780    0.57620    1.000
    C74      C        0.98870    0.29570    0.74630    1.000
    H58      H        0.03050    0.31740    0.77420    1.000
    C75      C        0.94200    0.24970    0.67210    1.000
    N57      N        0.85230    0.24600    0.70046    1.000
    N58      N        0.02980    0.28140    0.69900    1.000
    N59      N        0.94510    0.22140    0.62130    1.000
    H59      H        0.88690    0.19980    0.60610    1.000
    H60      H        0.00510    0.22520    0.60450    1.000
    N60      N        0.88420    0.27630    0.74958    1.000
    O29      O        0.71880    0.16890    0.59650    1.000
    O30      O        0.56350    0.18880    0.63706    1.000
    Co16     Co       0.20141    0.69367    0.18402    1.000
    C76      C        0.11810    0.67660    0.09560    1.000
    C77      C        0.05800    0.67040    0.04600    1.000
    C78      C        0.94410    0.66100    0.04560    1.000
    H61      H        0.90510    0.65780    0.07620    1.000
    C79      C        0.48870    0.79570    0.24630    1.000
    H62      H        0.53050    0.81740    0.27420    1.000
    C80      C        0.44200    0.74970    0.17210    1.000
    N61      N        0.35230    0.74600    0.20046    1.000
    N62      N        0.52980    0.78140    0.19900    1.000
    N63      N        0.44510    0.72140    0.12130    1.000
    H63      H        0.38690    0.69980    0.10610    1.000
    H64      H        0.50510    0.72520    0.10450    1.000
    N64      N        0.38420    0.77630    0.24958    1.000
    O31      O        0.21880    0.66890    0.09650    1.000
    O32      O        0.06350    0.68880    0.13706    1.000
    C81      C        0.17240    0.38580    0.50000    1.000
    H65      H        0.17520    0.31040    0.50000    1.000
    C82      C        0.15660    0.60690    0.50000    1.000
    H66      H        0.15020    0.68210    0.50000    1.000
    C83      C        0.67240    0.88580    0.00000    1.000
    H67      H        0.67520    0.81040    0.00000    1.000
    C84      C        0.65660    0.10690    0.00000    1.000
    H68      H        0.65020    0.18210    0.00000    1.000
    C85      C        0.82760    0.61420    0.50000    1.000
    H69      H        0.82480    0.68960    0.50000    1.000
    C86      C        0.84340    0.39310    0.50000    1.000
    H70      H        0.84980    0.31790    0.50000    1.000
    C87      C        0.32760    0.11420    0.00000    1.000
    H71      H        0.32480    0.18960    0.00000    1.000
    C88      C        0.34340    0.89310    0.00000    1.000
    H72      H        0.34980    0.81790    0.00000    1.000
    C89      C        0.61420    0.17240    0.50000    1.000
    H73      H        0.68960    0.17520    0.50000    1.000
    C90      C        0.39310    0.15660    0.50000    1.000
    H74      H        0.31790    0.15020    0.50000    1.000
    C91      C        0.11420    0.67240    0.00000    1.000
    H75      H        0.18960    0.67520    0.00000    1.000
    C92      C        0.89310    0.65660    0.00000    1.000
    H76      H        0.81790    0.65020    0.00000    1.000
    C93      C        0.38580    0.82760    0.50000    1.000
    H77      H        0.31040    0.82480    0.50000    1.000
    C94      C        0.60690    0.84340    0.50000    1.000
    H78      H        0.68210    0.84980    0.50000    1.000
    C95      C        0.88580    0.32760    0.00000    1.000
    H79      H        0.81040    0.32480    0.00000    1.000
    C96      C        0.10690    0.34340    0.00000    1.000
    H80      H        0.18210    0.34980    0.00000    1.000
