# CIF file generated by openbabel 3.1.0, see https://openbabel.org
data_I
_chemical_name_common 'image0'
_cell_length_a 9.5152
_cell_length_b 33.144
_cell_length_c 9.6569
_cell_angle_alpha 90
_cell_angle_beta 93.211
_cell_angle_gamma 90
_space_group_name_H-M_alt 'P 1'
_space_group_name_Hall 'P 1'
loop_
    _symmetry_equiv_pos_as_xyz
    x,y,z
loop_
    _atom_site_label
    _atom_site_type_symbol
    _atom_site_fract_x
    _atom_site_fract_y
    _atom_site_fract_z
    _atom_site_occupancy
    U1       U        0.08050    0.24021    0.66336    1.000
    U2       U        0.18149    0.24060    0.26670    1.000
    U3       U        0.54940    0.00736    0.79980    1.000
    U4       U        0.94924    0.00763    0.69537    1.000
    U5       U        0.64402    0.13048    0.44288    1.000
    P1       P        0.71160    0.02024    0.45870    1.000
    P2       P        0.42820    0.22173    0.49490    1.000
    P3       P        0.78500    0.02118    0.03870    1.000
    P4       P        0.83190    0.23074    0.43290    1.000
    O1       O        0.75900    0.25920    0.33130    1.000
    O2       O        0.61610    0.98980    0.38440    1.000
    O3       O        0.69910    0.01780    0.61790    1.000
    O4       O        0.88300    0.99480    0.12660    1.000
    O5       O        0.43580    0.23690    0.34490    1.000
    O6       O        0.80200    0.01690    0.88280    1.000
    O7       O        0.82810    0.24700    0.58390    1.000
    O8       O        0.99440    0.23030    0.41500    1.000
    O9       O        0.50310    0.25100    0.59390    1.000
    O10      O        0.26540    0.22380    0.51260    1.000
    O11      O        0.86810    0.00750    0.44840    1.000
    O12      O        0.48030    0.17960    0.51210    1.000
    O13      O        0.63170    0.00880    0.05200    1.000
    O14      O        0.68540    0.06140    0.40500    1.000
    O15      O        0.80800    0.06590    0.08040    1.000
    O16      O        0.77080    0.18940    0.42120    1.000
    U6       U        0.41950    0.74021    0.83664    1.000
    U7       U        0.31851    0.74060    0.23330    1.000
    U8       U        0.95060    0.50736    0.70020    1.000
    U9       U        0.55076    0.50763    0.80463    1.000
    U10      U        0.85598    0.63048    0.05712    1.000
    P5       P        0.78840    0.52024    0.04130    1.000
    P6       P        0.07180    0.72173    0.00510    1.000
    P7       P        0.71500    0.52118    0.46130    1.000
    P8       P        0.66810    0.73074    0.06710    1.000
    O17      O        0.74100    0.75920    0.16870    1.000
    O18      O        0.88390    0.48980    0.11560    1.000
    O19      O        0.80090    0.51780    0.88210    1.000
    O20      O        0.61700    0.49480    0.37340    1.000
    O21      O        0.06420    0.73690    0.15510    1.000
    O22      O        0.69800    0.51690    0.61720    1.000
    O23      O        0.67190    0.74700    0.91610    1.000
    O24      O        0.50560    0.73030    0.08500    1.000
    O25      O        0.99690    0.75100    0.90610    1.000
    O26      O        0.23460    0.72380    0.98740    1.000
    O27      O        0.63190    0.50750    0.05160    1.000
    O28      O        0.01970    0.67960    0.98790    1.000
    O29      O        0.86830    0.50880    0.44800    1.000
    O30      O        0.81460    0.56140    0.09500    1.000
    O31      O        0.69200    0.56590    0.41960    1.000
    O32      O        0.72920    0.68940    0.07880    1.000
    U11      U        0.91950    0.75979    0.33664    1.000
    U12      U        0.81851    0.75940    0.73330    1.000
    U13      U        0.45060    0.99264    0.20020    1.000
    U14      U        0.05076    0.99237    0.30463    1.000
    U15      U        0.35598    0.86952    0.55712    1.000
    P9       P        0.28840    0.97976    0.54130    1.000
    P10      P        0.57180    0.77827    0.50510    1.000
    P11      P        0.21500    0.97882    0.96130    1.000
    P12      P        0.16810    0.76926    0.56710    1.000
    O33      O        0.24100    0.74080    0.66870    1.000
    O34      O        0.38390    0.01020    0.61560    1.000
    O35      O        0.30090    0.98220    0.38210    1.000
    O36      O        0.11700    0.00520    0.87340    1.000
    O37      O        0.56420    0.76310    0.65510    1.000
    O38      O        0.19800    0.98310    0.11720    1.000
    O39      O        0.17190    0.75300    0.41610    1.000
    O40      O        0.00560    0.76970    0.58500    1.000
    O41      O        0.49690    0.74900    0.40610    1.000
    O42      O        0.73460    0.77620    0.48740    1.000
    O43      O        0.13190    0.99250    0.55160    1.000
    O44      O        0.51970    0.82040    0.48790    1.000
    O45      O        0.36830    0.99120    0.94800    1.000
    O46      O        0.31460    0.93860    0.59500    1.000
    O47      O        0.19200    0.93410    0.91960    1.000
    O48      O        0.22920    0.81060    0.57880    1.000
    U16      U        0.58050    0.25979    0.16336    1.000
    U17      U        0.68149    0.25940    0.76670    1.000
    U18      U        0.04940    0.49264    0.29980    1.000
    U19      U        0.44924    0.49237    0.19537    1.000
    U20      U        0.14402    0.36952    0.94288    1.000
    P13      P        0.21160    0.47976    0.95870    1.000
    P14      P        0.92820    0.27827    0.99490    1.000
    P15      P        0.28500    0.47882    0.53870    1.000
    P16      P        0.33190    0.26926    0.93290    1.000
    O49      O        0.25900    0.24080    0.83130    1.000
    O50      O        0.11610    0.51020    0.88440    1.000
    O51      O        0.19910    0.48220    0.11790    1.000
    O52      O        0.38300    0.50520    0.62660    1.000
    O53      O        0.93580    0.26310    0.84490    1.000
    O54      O        0.30200    0.48310    0.38280    1.000
    O55      O        0.32810    0.25300    0.08390    1.000
    O56      O        0.49440    0.26970    0.91500    1.000
    O57      O        0.00310    0.24900    0.09390    1.000
    O58      O        0.76540    0.27620    0.01260    1.000
    O59      O        0.36810    0.49250    0.94840    1.000
    O60      O        0.98030    0.32040    0.01210    1.000
    O61      O        0.13170    0.49120    0.55200    1.000
    O62      O        0.18540    0.43860    0.90500    1.000
    O63      O        0.30800    0.43410    0.58040    1.000
    O64      O        0.27080    0.31060    0.92120    1.000
