# CIF file generated by openbabel 3.1.0, see https://openbabel.org
data_I
_chemical_name_common 'YAQZAT_ion_b'
_cell_length_a 9.1844
_cell_length_b 21.615
_cell_length_c 11.5401
_cell_angle_alpha 90
_cell_angle_beta 112.701
_cell_angle_gamma 90
_space_group_name_H-M_alt 'P 1'
_space_group_name_Hall 'P 1'
loop_
    _symmetry_equiv_pos_as_xyz
    x,y,z
loop_
    _atom_site_label
    _atom_site_type_symbol
    _atom_site_fract_x
    _atom_site_fract_y
    _atom_site_fract_z
    _atom_site_occupancy
    U1       U        0.25388    0.24934    0.25795    1.000
    U2       U        0.55603    0.99537    0.37873    1.000
    O3       O        0.63111    0.04846    0.24770    1.000
    O4       O        0.09209    0.33615    0.21027    1.000
    O5       O        0.41493    0.16210    0.30493    1.000
    O6       O        0.04956    0.18555    0.19700    1.000
    O7       O        0.45793    0.31308    0.31906    1.000
    O8       O        0.69322    0.21750    0.91921    1.000
    O9       O        0.60269    0.09110    0.29810    1.000
    O10      O        0.90126    0.40543    0.20828    1.000
    O11      O        0.67286    0.21097    0.55965    1.000
    O12      O        0.80542    0.99381    0.51328    1.000
    O13      O        0.81214    0.28413    0.59434    1.000
    O14      O        0.30671    0.99687    0.24382    1.000
    O15      O        0.83238    0.29075    0.95758    1.000
    O16      O        0.49672    0.93305    0.50624    1.000
    C17      C        0.74024    0.24632    0.51096    1.000
    C18      C        0.76503    0.25441    0.00441    1.000
    C19      C        0.95447    0.34806    0.21511    1.000
    C20      C        0.55218    0.15013    0.29936    1.000
    C21      C        0.74029    0.24578    0.37869    1.000
    C22      C        0.76561    0.25341    0.13671    1.000
    C23      C        0.65447    0.20242    0.28181    1.000
    C24      C        0.85230    0.29623    0.23377    1.000
    C25      C        0.83265    0.29224    0.34996    1.000
    H26      H        0.89152    0.32671    0.42019    1.000
    C27      C        0.67385    0.20668    0.16533    1.000
    H28      H        0.61500    0.17238    0.09464    1.000
    N29      N        0.58230    0.43676    0.24836    1.000
    U30      U        0.25455    0.74922    0.24363    1.000
    U31      U        0.95213    0.49544    0.12270    1.000
    O32      O        0.87677    0.54852    0.25359    1.000
    O33      O        0.41617    0.83604    0.29133    1.000
    O34      O        0.09356    0.66200    0.19681    1.000
    O35      O        0.45904    0.68552    0.30454    1.000
    O36      O        0.05043    0.81291    0.18258    1.000
    O37      O        0.81553    0.71748    0.58256    1.000
    O38      O        0.90554    0.59111    0.20347    1.000
    O39      O        0.60676    0.90534    0.29315    1.000
    O40      O        0.83615    0.71099    0.94225    1.000
    O41      O        0.70288    0.49409    0.98755    1.000
    O42      O        0.69616    0.78395    0.90729    1.000
    O43      O        0.20121    0.49678    0.25808    1.000
    O44      O        0.67567    0.79052    0.54406    1.000
    O45      O        0.01171    0.43311    0.99536    1.000
    C46      C        0.76836    0.74625    0.99078    1.000
    C47      C        0.74340    0.75431    0.49732    1.000
    C48      C        0.55375    0.84796    0.28648    1.000
    C49      C        0.95627    0.65011    0.20235    1.000
    C50      C        0.76826    0.74573    0.12302    1.000
    C51      C        0.74290    0.75337    0.36501    1.000
    C52      C        0.85418    0.70243    0.21998    1.000
    C53      C        0.65600    0.79614    0.26786    1.000
    C54      C        0.67572    0.79215    0.15168    1.000
    H55      H        0.61684    0.82662    0.08143    1.000
    C56      C        0.83486    0.70670    0.33646    1.000
    H57      H        0.89377    0.67241    0.40717    1.000
    N58      N        0.92054    0.93666    0.25033    1.000
    U59      U        0.75461    0.75181    0.74373    1.000
    U60      U        0.45242    0.00576    0.62279    1.000
    O61      O        0.37690    0.95269    0.75361    1.000
    O62      O        0.91638    0.66502    0.79134    1.000
    O63      O        0.59360    0.83907    0.69675    1.000
    O64      O        0.95898    0.81556    0.80439    1.000
    O65      O        0.55052    0.68806    0.68303    1.000
    O66      O        0.31542    0.78364    0.08246    1.000
    O67      O        0.40571    0.91006    0.70343    1.000
    O68      O        0.10707    0.59576    0.79317    1.000
    O69      O        0.33586    0.79016    0.44205    1.000
    O70      O        0.20315    0.00726    0.48787    1.000
    O71      O        0.19628    0.71710    0.40730    1.000
    O72      O        0.70163    0.00427    0.75798    1.000
    O73      O        0.17594    0.71049    0.04400    1.000
    O74      O        0.51197    0.06808    0.49542    1.000
    C75      C        0.26838    0.75485    0.49073    1.000
    C76      C        0.24348    0.74678    0.99724    1.000
    C77      C        0.05397    0.65312    0.78646    1.000
    C78      C        0.45631    0.85104    0.70229    1.000
    C79      C        0.26829    0.75539    0.62298    1.000
    C80      C        0.24292    0.74775    0.86493    1.000
    C81      C        0.35410    0.79874    0.71987    1.000
    C82      C        0.15618    0.70494    0.76785    1.000
    C83      C        0.17589    0.70893    0.65168    1.000
    H84      H        0.11695    0.67447    0.58141    1.000
    C85      C        0.33478    0.79445    0.83635    1.000
    H86      H        0.39374    0.82873    0.90706    1.000
    N87      N        0.40430    0.55533    0.71854    1.000
    U88      U        0.75395    0.25197    0.75803    1.000
    U89      U        0.05613    0.50580    0.87879    1.000
    O90      O        0.13094    0.45276    0.74759    1.000
    O91      O        0.59235    0.16513    0.71031    1.000
    O92      O        0.91492    0.33918    0.80484    1.000
    O93      O        0.54937    0.31564    0.69702    1.000
    O94      O        0.95822    0.18838    0.81925    1.000
    O95      O        0.19256    0.28357    0.41900    1.000
    O96      O        0.10269    0.41012    0.79797    1.000
    O97      O        0.40169    0.09583    0.70836    1.000
    O98      O        0.17241    0.29021    0.05947    1.000
    O99      O        0.30557    0.50724    0.01335    1.000
    O100     O        0.31274    0.21735    0.09450    1.000
    O101     O        0.80672    0.50450    0.74392    1.000
    O102     O        0.33277    0.21062    0.45762    1.000
    O103     O        0.99702    0.56813    0.00639    1.000
    C104     C        0.24039    0.25502    0.01095    1.000
    C105     C        0.26485    0.24679    0.50429    1.000
    C106     C        0.45477    0.15321    0.71514    1.000
    C107     C        0.05217    0.35110    0.79925    1.000
    C108     C        0.24051    0.25554    0.87871    1.000
    C109     C        0.26547    0.24776    0.63662    1.000
    C110     C        0.15438    0.29879    0.78169    1.000
    C111     C        0.35254    0.20505    0.73379    1.000
    C112     C        0.33311    0.20913    0.85008    1.000
    H113     H        0.39216    0.17472    0.92039    1.000
    C114     C        0.17353    0.29444    0.66514    1.000
    H115     H        0.11450    0.32868    0.59440    1.000
    N116     N        0.07748    0.06957    0.73454    1.000
    H117     H        0.57449    0.40259    0.18223    1.000
    H118     H        0.47430    0.44043    0.25819    1.000
    H119     H        0.60989    0.47906    0.21820    1.000
    H120     H        0.49278    0.56083    0.68359    1.000
    H121     H        0.29444    0.56380    0.64692    1.000
    H122     H        0.42275    0.58647    0.79207    1.000
    H123     H        0.06624    0.10300    0.66624    1.000
    H124     H        0.97128    0.06590    0.74727    1.000
    H125     H        0.16734    0.08238    0.81925    1.000
    H126     H        0.02231    0.93733    0.23061    1.000
    H127     H        0.90554    0.97983    0.28477    1.000
    H128     H        0.93166    0.90275    0.31770    1.000
    H129     H        0.40742    0.51016    0.75153    1.000
    H130     H        0.67036    0.42497    0.33477    1.000
    H131     H        0.10494    0.02694    0.70553    1.000
    H132     H        0.82291    0.92681    0.16827    1.000
