# CIF file generated by openbabel 3.1.0, see https://openbabel.org
data_I
_chemical_name_common 'image0'
_cell_length_a 33.453
_cell_length_b 33.453
_cell_length_c 8.4275
_cell_angle_alpha 90
_cell_angle_beta 90
_cell_angle_gamma 120
_space_group_name_H-M_alt 'P 1'
_space_group_name_Hall 'P 1'
loop_
    _symmetry_equiv_pos_as_xyz
    x,y,z
loop_
    _atom_site_label
    _atom_site_type_symbol
    _atom_site_fract_x
    _atom_site_fract_y
    _atom_site_fract_z
    _atom_site_occupancy
    Ag1      Ag       0.14706    0.32181    0.50263    1.000
    O1       O        0.33491    0.33006    0.79240    1.000
    N1       N        0.20605    0.34242    0.66150    1.000
    N2       N        0.27857    0.19738    0.61820    1.000
    C1       C        0.21847    0.37789    0.76020    1.000
    H1       H        0.20180    0.39400    0.75720    1.000
    C2       C        0.25446    0.39209    0.86640    1.000
    H2       H        0.26210    0.41720    0.93600    1.000
    C3       C        0.27909    0.36936    0.87000    1.000
    H3       H        0.30450    0.37900    0.94040    1.000
    C4       C        0.26631    0.33225    0.76970    1.000
    C5       C        0.22944    0.31975    0.66750    1.000
    H4       H        0.22050    0.29410    0.59910    1.000
    C6       C        0.29388    0.30853    0.76650    1.000
    C7       C        0.27083    0.25845    0.73210    1.000
    C8       C        0.22695    0.22745    0.78580    1.000
    H5       H        0.20920    0.23770    0.84300    1.000
    C9       C        0.20962    0.18099    0.75360    1.000
    H6       H        0.17970    0.15870    0.78910    1.000
    C10      C        0.23600    0.16772    0.67040    1.000
    H7       H        0.22360    0.13580    0.64850    1.000
    C11      C        0.29543    0.24189    0.65090    1.000
    H8       H        0.32590    0.26330    0.61680    1.000
    Ag2      Ag       0.81372    0.65514    0.83596    1.000
    O2       O        0.00158    0.66339    0.12573    1.000
    N3       N        0.87272    0.67575    0.99483    1.000
    N4       N        0.94524    0.53071    0.95153    1.000
    C12      C        0.88514    0.71122    0.09353    1.000
    H9       H        0.86847    0.72733    0.09053    1.000
    C13      C        0.92113    0.72542    0.19973    1.000
    H10      H        0.92877    0.75053    0.26933    1.000
    C14      C        0.94576    0.70269    0.20333    1.000
    H11      H        0.97117    0.71233    0.27373    1.000
    C15      C        0.93298    0.66558    0.10303    1.000
    C16      C        0.89611    0.65308    0.00083    1.000
    H12      H        0.88717    0.62743    0.93243    1.000
    C17      C        0.96055    0.64186    0.09983    1.000
    C18      C        0.93750    0.59178    0.06543    1.000
    C19      C        0.89362    0.56078    0.11913    1.000
    H13      H        0.87587    0.57103    0.17633    1.000
    C20      C        0.87629    0.51432    0.08693    1.000
    H14      H        0.84637    0.49203    0.12243    1.000
    C21      C        0.90267    0.50105    0.00373    1.000
    H15      H        0.89027    0.46913    0.98183    1.000
    C22      C        0.96210    0.57522    0.98423    1.000
    H16      H        0.99257    0.59663    0.95013    1.000
    Ag3      Ag       0.48039    0.98848    0.16930    1.000
    O3       O        0.66824    0.99673    0.45907    1.000
    N5       N        0.53938    0.00909    0.32817    1.000
    N6       N        0.61190    0.86405    0.28487    1.000
    C23      C        0.55180    0.04456    0.42687    1.000
    H17      H        0.53513    0.06067    0.42387    1.000
    C24      C        0.58779    0.05876    0.53307    1.000
    H18      H        0.59543    0.08387    0.60267    1.000
    C25      C        0.61242    0.03603    0.53667    1.000
    H19      H        0.63783    0.04567    0.60707    1.000
    C26      C        0.59964    0.99892    0.43637    1.000
    C27      C        0.56277    0.98642    0.33417    1.000
    H20      H        0.55383    0.96077    0.26577    1.000
    C28      C        0.62721    0.97520    0.43317    1.000
    C29      C        0.60416    0.92512    0.39877    1.000
    C30      C        0.56028    0.89412    0.45247    1.000
    H21      H        0.54253    0.90437    0.50967    1.000
    C31      C        0.54295    0.84766    0.42027    1.000
    H22      H        0.51303    0.82537    0.45577    1.000
    C32      C        0.56933    0.83439    0.33707    1.000
    H23      H        0.55693    0.80247    0.31517    1.000
    C33      C        0.62876    0.90856    0.31757    1.000
    H24      H        0.65923    0.92997    0.28347    1.000
    Ag4      Ag       0.67819    0.82525    0.50263    1.000
    O4       O        0.66994    0.00485    0.79240    1.000
    N7       N        0.65758    0.86363    0.66150    1.000
    N8       N        0.80262    0.08119    0.61820    1.000
    C34      C        0.62211    0.84058    0.76020    1.000
    H25      H        0.60600    0.80780    0.75720    1.000
    C35      C        0.60791    0.86237    0.86640    1.000
    H26      H        0.58280    0.84490    0.93600    1.000
    C36      C        0.63064    0.90973    0.87000    1.000
    H27      H        0.62100    0.92550    0.94040    1.000
    C37      C        0.66775    0.93406    0.76970    1.000
    C38      C        0.68025    0.90969    0.66750    1.000
    H28      H        0.70590    0.92640    0.59910    1.000
    C39      C        0.69147    0.98535    0.76650    1.000
    C40      C        0.74155    0.01238    0.73210    1.000
    C41      C        0.77255    0.99950    0.78580    1.000
    H29      H        0.76230    0.97150    0.84300    1.000
    C42      C        0.81901    0.02863    0.75360    1.000
    H30      H        0.84130    0.02100    0.78910    1.000
    C43      C        0.83228    0.06828    0.67040    1.000
    H31      H        0.86420    0.08780    0.64850    1.000
    C44      C        0.75811    0.05354    0.65090    1.000
    H32      H        0.73670    0.06260    0.61680    1.000
    Ag5      Ag       0.34486    0.15858    0.83596    1.000
    O5       O        0.33661    0.33818    0.12573    1.000
    N9       N        0.32425    0.19696    0.99483    1.000
    N10      N        0.46929    0.41452    0.95153    1.000
    C45      C        0.28878    0.17391    0.09353    1.000
    H33      H        0.27267    0.14113    0.09053    1.000
    C46      C        0.27458    0.19570    0.19973    1.000
    H34      H        0.24947    0.17823    0.26933    1.000
    C47      C        0.29731    0.24306    0.20333    1.000
    H35      H        0.28767    0.25883    0.27373    1.000
    C48      C        0.33442    0.26739    0.10303    1.000
    C49      C        0.34692    0.24302    0.00083    1.000
    H36      H        0.37257    0.25973    0.93243    1.000
    C50      C        0.35814    0.31868    0.09983    1.000
    C51      C        0.40822    0.34571    0.06543    1.000
    C52      C        0.43922    0.33283    0.11913    1.000
    H37      H        0.42897    0.30483    0.17633    1.000
    C53      C        0.48568    0.36196    0.08693    1.000
    H38      H        0.50797    0.35433    0.12243    1.000
    C54      C        0.49895    0.40161    0.00373    1.000
    H39      H        0.53087    0.42113    0.98183    1.000
    C55      C        0.42478    0.38687    0.98423    1.000
    H40      H        0.40337    0.39593    0.95013    1.000
    Ag6      Ag       0.01152    0.49191    0.16930    1.000
    O6       O        0.00327    0.67152    0.45907    1.000
    N11      N        0.99091    0.53030    0.32817    1.000
    N12      N        0.13595    0.74786    0.28487    1.000
    C56      C        0.95544    0.50725    0.42687    1.000
    H41      H        0.93933    0.47447    0.42387    1.000
    C57      C        0.94124    0.52904    0.53307    1.000
    H42      H        0.91613    0.51157    0.60267    1.000
    C58      C        0.96397    0.57640    0.53667    1.000
    H43      H        0.95433    0.59217    0.60707    1.000
    C59      C        0.00108    0.60073    0.43637    1.000
    C60      C        0.01358    0.57636    0.33417    1.000
    H44      H        0.03923    0.59307    0.26577    1.000
    C61      C        0.02480    0.65202    0.43317    1.000
    C62      C        0.07488    0.67905    0.39877    1.000
    C63      C        0.10588    0.66617    0.45247    1.000
    H45      H        0.09563    0.63817    0.50967    1.000
    C64      C        0.15234    0.69530    0.42027    1.000
    H46      H        0.17463    0.68767    0.45577    1.000
    C65      C        0.16561    0.73495    0.33707    1.000
    H47      H        0.19753    0.75447    0.31517    1.000
    C66      C        0.09144    0.72021    0.31757    1.000
    H48      H        0.07003    0.72927    0.28347    1.000
    Ag7      Ag       0.17475    0.85294    0.50263    1.000
    O7       O        0.99515    0.66509    0.79240    1.000
    N13      N        0.13637    0.79395    0.66150    1.000
    N14      N        0.91881    0.72143    0.61820    1.000
    C67      C        0.15942    0.78153    0.76020    1.000
    H49      H        0.19220    0.79820    0.75720    1.000
    C68      C        0.13763    0.74554    0.86640    1.000
    H50      H        0.15510    0.73790    0.93600    1.000
    C69      C        0.09027    0.72091    0.87000    1.000
    H51      H        0.07450    0.69550    0.94040    1.000
    C70      C        0.06594    0.73369    0.76970    1.000
    C71      C        0.09031    0.77056    0.66750    1.000
    H52      H        0.07360    0.77950    0.59910    1.000
    C72      C        0.01465    0.70612    0.76650    1.000
    C73      C        0.98762    0.72917    0.73210    1.000
    C74      C        0.00050    0.77305    0.78580    1.000
    H53      H        0.02850    0.79080    0.84300    1.000
    C75      C        0.97137    0.79038    0.75360    1.000
    H54      H        0.97900    0.82030    0.78910    1.000
    C76      C        0.93172    0.76400    0.67040    1.000
    H55      H        0.91220    0.77640    0.64850    1.000
    C77      C        0.94646    0.70457    0.65090    1.000
    H56      H        0.93740    0.67410    0.61680    1.000
    Ag8      Ag       0.84142    0.18628    0.83596    1.000
    O8       O        0.66182    0.99842    0.12573    1.000
    N15      N        0.80304    0.12728    0.99483    1.000
    N16      N        0.58548    0.05476    0.95153    1.000
    C78      C        0.82609    0.11486    0.09353    1.000
    H57      H        0.85887    0.13153    0.09053    1.000
    C79      C        0.80430    0.07887    0.19973    1.000
    H58      H        0.82177    0.07123    0.26933    1.000
    C80      C        0.75694    0.05424    0.20333    1.000
    H59      H        0.74117    0.02883    0.27373    1.000
    C81      C        0.73261    0.06702    0.10303    1.000
    C82      C        0.75698    0.10389    0.00083    1.000
    H60      H        0.74027    0.11283    0.93243    1.000
    C83      C        0.68132    0.03945    0.09983    1.000
    C84      C        0.65429    0.06250    0.06543    1.000
    C85      C        0.66717    0.10638    0.11913    1.000
    H61      H        0.69517    0.12413    0.17633    1.000
    C86      C        0.63804    0.12371    0.08693    1.000
    H62      H        0.64567    0.15363    0.12243    1.000
    C87      C        0.59839    0.09733    0.00373    1.000
    H63      H        0.57887    0.10973    0.98183    1.000
    C88      C        0.61313    0.03790    0.98423    1.000
    H64      H        0.60407    0.00743    0.95013    1.000
    Ag9      Ag       0.50809    0.51961    0.16930    1.000
    O9       O        0.32848    0.33176    0.45907    1.000
    N17      N        0.46970    0.46062    0.32817    1.000
    N18      N        0.25214    0.38810    0.28487    1.000
    C89      C        0.49275    0.44820    0.42687    1.000
    H65      H        0.52553    0.46487    0.42387    1.000
    C90      C        0.47096    0.41221    0.53307    1.000
    H66      H        0.48843    0.40457    0.60267    1.000
    C91      C        0.42360    0.38758    0.53667    1.000
    H67      H        0.40783    0.36217    0.60707    1.000
    C92      C        0.39927    0.40036    0.43637    1.000
    C93      C        0.42364    0.43723    0.33417    1.000
    H68      H        0.40693    0.44617    0.26577    1.000
    C94      C        0.34798    0.37279    0.43317    1.000
    C95      C        0.32095    0.39584    0.39877    1.000
    C96      C        0.33383    0.43972    0.45247    1.000
    H69      H        0.36183    0.45747    0.50967    1.000
    C97      C        0.30470    0.45705    0.42027    1.000
    H70      H        0.31233    0.48697    0.45577    1.000
    C98      C        0.26505    0.43067    0.33707    1.000
    H71      H        0.24553    0.44307    0.31517    1.000
    C99      C        0.27979    0.37124    0.31757    1.000
    H72      H        0.27073    0.34077    0.28347    1.000
    Ag10     Ag       0.85294    0.67819    0.49737    1.000
    O10      O        0.66509    0.66994    0.20760    1.000
    N19      N        0.79395    0.65758    0.33850    1.000
    N20      N        0.72143    0.80262    0.38180    1.000
    C100     C        0.78153    0.62211    0.23980    1.000
    H73      H        0.79820    0.60600    0.24280    1.000
    C101     C        0.74554    0.60791    0.13360    1.000
    H74      H        0.73790    0.58280    0.06400    1.000
    C102     C        0.72091    0.63064    0.13000    1.000
    H75      H        0.69550    0.62100    0.05960    1.000
    C103     C        0.73369    0.66775    0.23030    1.000
    C104     C        0.77056    0.68025    0.33250    1.000
    H76      H        0.77950    0.70590    0.40090    1.000
    C105     C        0.70612    0.69147    0.23350    1.000
    C106     C        0.72917    0.74155    0.26790    1.000
    C107     C        0.77305    0.77255    0.21420    1.000
    H77      H        0.79080    0.76230    0.15700    1.000
    C108     C        0.79038    0.81901    0.24640    1.000
    H78      H        0.82030    0.84130    0.21090    1.000
    C109     C        0.76400    0.83228    0.32960    1.000
    H79      H        0.77640    0.86420    0.35150    1.000
    C110     C        0.70457    0.75811    0.34910    1.000
    H80      H        0.67410    0.73670    0.38320    1.000
    Ag11     Ag       0.51961    0.01152    0.83070    1.000
    O11      O        0.33176    0.00327    0.54093    1.000
    N21      N        0.46062    0.99091    0.67183    1.000
    N22      N        0.38810    0.13595    0.71513    1.000
    C111     C        0.44820    0.95544    0.57313    1.000
    H81      H        0.46487    0.93933    0.57613    1.000
    C112     C        0.41221    0.94124    0.46693    1.000
    H82      H        0.40457    0.91613    0.39733    1.000
    C113     C        0.38758    0.96397    0.46333    1.000
    H83      H        0.36217    0.95433    0.39293    1.000
    C114     C        0.40036    0.00108    0.56363    1.000
    C115     C        0.43723    0.01358    0.66583    1.000
    H84      H        0.44617    0.03923    0.73423    1.000
    C116     C        0.37279    0.02480    0.56683    1.000
    C117     C        0.39584    0.07488    0.60123    1.000
    C118     C        0.43972    0.10588    0.54753    1.000
    H85      H        0.45747    0.09563    0.49033    1.000
    C119     C        0.45705    0.15234    0.57973    1.000
    H86      H        0.48697    0.17463    0.54423    1.000
    C120     C        0.43067    0.16561    0.66293    1.000
    H87      H        0.44307    0.19753    0.68483    1.000
    C121     C        0.37124    0.09144    0.68243    1.000
    H88      H        0.34077    0.07003    0.71653    1.000
    Ag12     Ag       0.18628    0.34486    0.16404    1.000
    O12      O        0.99842    0.33661    0.87427    1.000
    N23      N        0.12728    0.32425    0.00517    1.000
    N24      N        0.05476    0.46929    0.04847    1.000
    C122     C        0.11486    0.28878    0.90647    1.000
    H89      H        0.13153    0.27267    0.90947    1.000
    C123     C        0.07887    0.27458    0.80027    1.000
    H90      H        0.07123    0.24947    0.73067    1.000
    C124     C        0.05424    0.29731    0.79667    1.000
    H91      H        0.02883    0.28767    0.72627    1.000
    C125     C        0.06702    0.33442    0.89697    1.000
    C126     C        0.10389    0.34692    0.99917    1.000
    H92      H        0.11283    0.37257    0.06757    1.000
    C127     C        0.03945    0.35814    0.90017    1.000
    C128     C        0.06250    0.40822    0.93457    1.000
    C129     C        0.10638    0.43922    0.88087    1.000
    H93      H        0.12413    0.42897    0.82367    1.000
    C130     C        0.12371    0.48568    0.91307    1.000
    H94      H        0.15363    0.50797    0.87757    1.000
    C131     C        0.09733    0.49895    0.99627    1.000
    H95      H        0.10973    0.53087    0.01817    1.000
    C132     C        0.03790    0.42478    0.01577    1.000
    H96      H        0.00743    0.40337    0.04987    1.000
    Ag13     Ag       0.32181    0.17475    0.49737    1.000
    O13      O        0.33006    0.99515    0.20760    1.000
    N25      N        0.34242    0.13637    0.33850    1.000
    N26      N        0.19738    0.91881    0.38180    1.000
    C133     C        0.37789    0.15942    0.23980    1.000
    H97      H        0.39400    0.19220    0.24280    1.000
    C134     C        0.39209    0.13763    0.13360    1.000
    H98      H        0.41720    0.15510    0.06400    1.000
    C135     C        0.36936    0.09027    0.13000    1.000
    H99      H        0.37900    0.07450    0.05960    1.000
    C136     C        0.33225    0.06594    0.23030    1.000
    C137     C        0.31975    0.09031    0.33250    1.000
    H100     H        0.29410    0.07360    0.40090    1.000
    C138     C        0.30853    0.01465    0.23350    1.000
    C139     C        0.25845    0.98762    0.26790    1.000
    C140     C        0.22745    0.00050    0.21420    1.000
    H101     H        0.23770    0.02850    0.15700    1.000
    C141     C        0.18099    0.97137    0.24640    1.000
    H102     H        0.15870    0.97900    0.21090    1.000
    C142     C        0.16772    0.93172    0.32960    1.000
    H103     H        0.13580    0.91220    0.35150    1.000
    C143     C        0.24189    0.94646    0.34910    1.000
    H104     H        0.26330    0.93740    0.38320    1.000
    Ag14     Ag       0.98848    0.50809    0.83070    1.000
    O14      O        0.99673    0.32848    0.54093    1.000
    N27      N        0.00909    0.46970    0.67183    1.000
    N28      N        0.86405    0.25214    0.71513    1.000
    C144     C        0.04456    0.49275    0.57313    1.000
    H105     H        0.06067    0.52553    0.57613    1.000
    C145     C        0.05876    0.47096    0.46693    1.000
    H106     H        0.08387    0.48843    0.39733    1.000
    C146     C        0.03603    0.42360    0.46333    1.000
    H107     H        0.04567    0.40783    0.39293    1.000
    C147     C        0.99892    0.39927    0.56363    1.000
    C148     C        0.98642    0.42364    0.66583    1.000
    H108     H        0.96077    0.40693    0.73423    1.000
    C149     C        0.97520    0.34798    0.56683    1.000
    C150     C        0.92512    0.32095    0.60123    1.000
    C151     C        0.89412    0.33383    0.54753    1.000
    H109     H        0.90437    0.36183    0.49033    1.000
    C152     C        0.84766    0.30470    0.57973    1.000
    H110     H        0.82537    0.31233    0.54423    1.000
    C153     C        0.83439    0.26505    0.66293    1.000
    H111     H        0.80247    0.24553    0.68483    1.000
    C154     C        0.90856    0.27979    0.68243    1.000
    H112     H        0.92997    0.27073    0.71653    1.000
    Ag15     Ag       0.65514    0.84142    0.16404    1.000
    O15      O        0.66339    0.66182    0.87427    1.000
    N29      N        0.67575    0.80304    0.00517    1.000
    N30      N        0.53071    0.58548    0.04847    1.000
    C155     C        0.71122    0.82609    0.90647    1.000
    H113     H        0.72733    0.85887    0.90947    1.000
    C156     C        0.72542    0.80430    0.80027    1.000
    H114     H        0.75053    0.82177    0.73067    1.000
    C157     C        0.70269    0.75694    0.79667    1.000
    H115     H        0.71233    0.74117    0.72627    1.000
    C158     C        0.66558    0.73261    0.89697    1.000
    C159     C        0.65308    0.75698    0.99917    1.000
    H116     H        0.62743    0.74027    0.06757    1.000
    C160     C        0.64186    0.68132    0.90017    1.000
    C161     C        0.59178    0.65429    0.93457    1.000
    C162     C        0.56078    0.66717    0.88087    1.000
    H117     H        0.57103    0.69517    0.82367    1.000
    C163     C        0.51432    0.63804    0.91307    1.000
    H118     H        0.49203    0.64567    0.87757    1.000
    C164     C        0.50105    0.59839    0.99627    1.000
    H119     H        0.46913    0.57887    0.01817    1.000
    C165     C        0.57522    0.61313    0.01577    1.000
    H120     H        0.59663    0.60407    0.04987    1.000
    Ag16     Ag       0.82525    0.14706    0.49737    1.000
    O16      O        0.00485    0.33491    0.20760    1.000
    N31      N        0.86363    0.20605    0.33850    1.000
    N32      N        0.08119    0.27857    0.38180    1.000
    C166     C        0.84058    0.21847    0.23980    1.000
    H121     H        0.80780    0.20180    0.24280    1.000
    C167     C        0.86237    0.25446    0.13360    1.000
    H122     H        0.84490    0.26210    0.06400    1.000
    C168     C        0.90973    0.27909    0.13000    1.000
    H123     H        0.92550    0.30450    0.05960    1.000
    C169     C        0.93406    0.26631    0.23030    1.000
    C170     C        0.90969    0.22944    0.33250    1.000
    H124     H        0.92640    0.22050    0.40090    1.000
    C171     C        0.98535    0.29388    0.23350    1.000
    C172     C        0.01238    0.27083    0.26790    1.000
    C173     C        0.99950    0.22695    0.21420    1.000
    H125     H        0.97150    0.20920    0.15700    1.000
    C174     C        0.02863    0.20962    0.24640    1.000
    H126     H        0.02100    0.17970    0.21090    1.000
    C175     C        0.06828    0.23600    0.32960    1.000
    H127     H        0.08780    0.22360    0.35150    1.000
    C176     C        0.05354    0.29543    0.34910    1.000
    H128     H        0.06260    0.32590    0.38320    1.000
    Ag17     Ag       0.49191    0.48039    0.83070    1.000
    O17      O        0.67152    0.66824    0.54093    1.000
    N33      N        0.53030    0.53938    0.67183    1.000
    N34      N        0.74786    0.61190    0.71513    1.000
    C177     C        0.50725    0.55180    0.57313    1.000
    H129     H        0.47447    0.53513    0.57613    1.000
    C178     C        0.52904    0.58779    0.46693    1.000
    H130     H        0.51157    0.59543    0.39733    1.000
    C179     C        0.57640    0.61242    0.46333    1.000
    H131     H        0.59217    0.63783    0.39293    1.000
    C180     C        0.60073    0.59964    0.56363    1.000
    C181     C        0.57636    0.56277    0.66583    1.000
    H132     H        0.59307    0.55383    0.73423    1.000
    C182     C        0.65202    0.62721    0.56683    1.000
    C183     C        0.67905    0.60416    0.60123    1.000
    C184     C        0.66617    0.56028    0.54753    1.000
    H133     H        0.63817    0.54253    0.49033    1.000
    C185     C        0.69530    0.54295    0.57973    1.000
    H134     H        0.68767    0.51303    0.54423    1.000
    C186     C        0.73495    0.56933    0.66293    1.000
    H135     H        0.75447    0.55693    0.68483    1.000
    C187     C        0.72021    0.62876    0.68243    1.000
    H136     H        0.72927    0.65923    0.71653    1.000
    Ag18     Ag       0.15858    0.81372    0.16404    1.000
    O18      O        0.33818    0.00158    0.87427    1.000
    N35      N        0.19696    0.87272    0.00517    1.000
    N36      N        0.41452    0.94524    0.04847    1.000
    C188     C        0.17391    0.88514    0.90647    1.000
    H137     H        0.14113    0.86847    0.90947    1.000
    C189     C        0.19570    0.92113    0.80027    1.000
    H138     H        0.17823    0.92877    0.73067    1.000
    C190     C        0.24306    0.94576    0.79667    1.000
    H139     H        0.25883    0.97117    0.72627    1.000
    C191     C        0.26739    0.93298    0.89697    1.000
    C192     C        0.24302    0.89611    0.99917    1.000
    H140     H        0.25973    0.88717    0.06757    1.000
    C193     C        0.31868    0.96055    0.90017    1.000
    C194     C        0.34571    0.93750    0.93457    1.000
    C195     C        0.33283    0.89362    0.88087    1.000
    H141     H        0.30483    0.87587    0.82367    1.000
    C196     C        0.36196    0.87629    0.91307    1.000
    H142     H        0.35433    0.84637    0.87757    1.000
    C197     C        0.40161    0.90267    0.99627    1.000
    H143     H        0.42113    0.89027    0.01817    1.000
    C198     C        0.38687    0.96210    0.01577    1.000
    H144     H        0.39593    0.99257    0.04987    1.000
