# CIF file generated by openbabel 3.1.0, see https://openbabel.org
data_I
_chemical_name_common 'image0'
_cell_length_a 8.045
_cell_length_b 17.549
_cell_length_c 18.014
_cell_angle_alpha 90
_cell_angle_beta 108.093
_cell_angle_gamma 90
_space_group_name_H-M_alt 'P 1'
_space_group_name_Hall 'P 1'
loop_
    _symmetry_equiv_pos_as_xyz
    x,y,z
loop_
    _atom_site_label
    _atom_site_type_symbol
    _atom_site_fract_x
    _atom_site_fract_y
    _atom_site_fract_z
    _atom_site_occupancy
    Zn1      Zn       0.11899    0.19131    0.73341    1.000
    O1       O        0.20670    0.18300    0.64450    1.000
    O2       O        0.44560    0.11790    0.70590    1.000
    O3       O        0.73140    0.08230    0.49030    1.000
    O4       O        0.09140    0.26770    0.37250    1.000
    O5       O        0.28670    0.24750    0.31380    1.000
    N1       N        0.89750    0.24900    0.68260    1.000
    N2       N        0.64210    0.30170    0.66260    1.000
    N3       N        0.94220    0.58800    0.73850    1.000
    N4       N        0.07800    0.49490    0.70180    1.000
    C1       C        0.23100    0.23960    0.37170    1.000
    C2       C        0.34110    0.19540    0.44110    1.000
    C3       C        0.29550    0.19270    0.50930    1.000
    H1       H        0.19670    0.21850    0.51230    1.000
    C4       C        0.39700    0.15190    0.57290    1.000
    C5       C        0.58800    0.11680    0.50050    1.000
    C6       C        0.48870    0.15740    0.43710    1.000
    H2       H        0.52040    0.15940    0.39170    1.000
    C7       C        0.54350    0.11340    0.56890    1.000
    H3       H        0.61140    0.08550    0.61150    1.000
    C8       C        0.34930    0.14940    0.64780    1.000
    C9       C        0.68580    0.31330    0.59700    1.000
    H4       H        0.62060    0.33920    0.55250    1.000
    C10      C        0.84560    0.27910    0.60920    1.000
    H5       H        0.90780    0.27690    0.57350    1.000
    C11      C        0.77050    0.26360    0.71250    1.000
    H6       H        0.77140    0.24910    0.76230    1.000
    C12      C        0.48470    0.32970    0.67920    1.000
    H7       H        0.38820    0.33240    0.63100    1.000
    H8       H        0.45280    0.29440    0.71400    1.000
    C13      C        0.51660    0.40620    0.71590    1.000
    H9       H        0.54040    0.44170    0.67920    1.000
    H10      H        0.62020    0.40380    0.76130    1.000
    C14      C        0.36480    0.43710    0.74130    1.000
    H11      H        0.33260    0.39950    0.77390    1.000
    H12      H        0.40270    0.48270    0.77230    1.000
    C15      C        0.87670    0.52010    0.75430    1.000
    H13      H        0.78720    0.51460    0.77640    1.000
    C16      C        0.06520    0.57000    0.70850    1.000
    H14      H        0.13510    0.60530    0.69370    1.000
    C17      C        0.20950    0.45530    0.67380    1.000
    H15      H        0.16000    0.40880    0.64690    1.000
    H16      H        0.24350    0.48770    0.63730    1.000
    C18      C        0.96120    0.46280    0.73290    1.000
    H17      H        0.94350    0.41100    0.73830    1.000
    C19      C        0.84120    0.03740    0.55300    1.000
    H18      H        0.78600    0.98890    0.55650    1.000
    H19      H        0.86350    0.06400    0.60240    1.000
    C20      C        0.01650    0.02470    0.53330    1.000
    H20      H        0.06120    0.07320    0.52200    1.000
    H21      H        0.10350    0.00200    0.57770    1.000
    Zn2      Zn       0.88101    0.69131    0.76659    1.000
    O6       O        0.79330    0.68300    0.85550    1.000
    O7       O        0.55440    0.61790    0.79410    1.000
    O8       O        0.26860    0.58230    0.00970    1.000
    O9       O        0.90860    0.76770    0.12750    1.000
    O10      O        0.71330    0.74750    0.18620    1.000
    N5       N        0.10250    0.74900    0.81740    1.000
    N6       N        0.35790    0.80170    0.83740    1.000
    N7       N        0.05780    0.08800    0.76150    1.000
    N8       N        0.92200    0.99490    0.79820    1.000
    C21      C        0.76900    0.73960    0.12830    1.000
    C22      C        0.65890    0.69540    0.05890    1.000
    C23      C        0.70450    0.69270    0.99070    1.000
    H22      H        0.80330    0.71850    0.98770    1.000
    C24      C        0.60300    0.65190    0.92710    1.000
    C25      C        0.41200    0.61680    0.99950    1.000
    C26      C        0.51130    0.65740    0.06290    1.000
    H23      H        0.47960    0.65940    0.10830    1.000
    C27      C        0.45650    0.61340    0.93110    1.000
    H24      H        0.38860    0.58550    0.88850    1.000
    C28      C        0.65070    0.64940    0.85220    1.000
    C29      C        0.31420    0.81330    0.90300    1.000
    H25      H        0.37940    0.83920    0.94750    1.000
    C30      C        0.15440    0.77910    0.89080    1.000
    H26      H        0.09220    0.77690    0.92650    1.000
    C31      C        0.22950    0.76360    0.78750    1.000
    H27      H        0.22860    0.74910    0.73770    1.000
    C32      C        0.51530    0.82970    0.82080    1.000
    H28      H        0.61180    0.83240    0.86900    1.000
    H29      H        0.54720    0.79440    0.78600    1.000
    C33      C        0.48340    0.90620    0.78410    1.000
    H30      H        0.45960    0.94170    0.82080    1.000
    H31      H        0.37980    0.90380    0.73870    1.000
    C34      C        0.63520    0.93710    0.75870    1.000
    H32      H        0.66740    0.89950    0.72610    1.000
    H33      H        0.59730    0.98270    0.72770    1.000
    C35      C        0.12330    0.02010    0.74570    1.000
    H34      H        0.21280    0.01460    0.72360    1.000
    C36      C        0.93480    0.07000    0.79150    1.000
    H35      H        0.86490    0.10530    0.80630    1.000
    C37      C        0.79050    0.95530    0.82620    1.000
    H36      H        0.84000    0.90880    0.85310    1.000
    H37      H        0.75650    0.98770    0.86270    1.000
    C38      C        0.03880    0.96280    0.76710    1.000
    H38      H        0.05650    0.91100    0.76170    1.000
    C39      C        0.15880    0.53740    0.94700    1.000
    H39      H        0.21400    0.48890    0.94350    1.000
    H40      H        0.13650    0.56400    0.89760    1.000
    C40      C        0.98350    0.52470    0.96670    1.000
    H41      H        0.93880    0.57320    0.97800    1.000
    H42      H        0.89650    0.50200    0.92230    1.000
    Zn3      Zn       0.88101    0.80869    0.26659    1.000
    O11      O        0.79330    0.81700    0.35550    1.000
    O12      O        0.55440    0.88210    0.29410    1.000
    O13      O        0.26860    0.91770    0.50970    1.000
    O14      O        0.90860    0.73230    0.62750    1.000
    O15      O        0.71330    0.75250    0.68620    1.000
    N9       N        0.10250    0.75100    0.31740    1.000
    N10      N        0.35790    0.69830    0.33740    1.000
    N11      N        0.05780    0.41200    0.26150    1.000
    N12      N        0.92200    0.50510    0.29820    1.000
    C41      C        0.76900    0.76040    0.62830    1.000
    C42      C        0.65890    0.80460    0.55890    1.000
    C43      C        0.70450    0.80730    0.49070    1.000
    H43      H        0.80330    0.78150    0.48770    1.000
    C44      C        0.60300    0.84810    0.42710    1.000
    C45      C        0.41200    0.88320    0.49950    1.000
    C46      C        0.51130    0.84260    0.56290    1.000
    H44      H        0.47960    0.84060    0.60830    1.000
    C47      C        0.45650    0.88660    0.43110    1.000
    H45      H        0.38860    0.91450    0.38850    1.000
    C48      C        0.65070    0.85060    0.35220    1.000
    C49      C        0.31420    0.68670    0.40300    1.000
    H46      H        0.37940    0.66080    0.44750    1.000
    C50      C        0.15440    0.72090    0.39080    1.000
    H47      H        0.09220    0.72310    0.42650    1.000
    C51      C        0.22950    0.73640    0.28750    1.000
    H48      H        0.22860    0.75090    0.23770    1.000
    C52      C        0.51530    0.67030    0.32080    1.000
    H49      H        0.61180    0.66760    0.36900    1.000
    H50      H        0.54720    0.70560    0.28600    1.000
    C53      C        0.48340    0.59380    0.28410    1.000
    H51      H        0.45960    0.55830    0.32080    1.000
    H52      H        0.37980    0.59620    0.23870    1.000
    C54      C        0.63520    0.56290    0.25870    1.000
    H53      H        0.66740    0.60050    0.22610    1.000
    H54      H        0.59730    0.51730    0.22770    1.000
    C55      C        0.12330    0.47990    0.24570    1.000
    H55      H        0.21280    0.48540    0.22360    1.000
    C56      C        0.93480    0.43000    0.29150    1.000
    H56      H        0.86490    0.39470    0.30630    1.000
    C57      C        0.79050    0.54470    0.32620    1.000
    H57      H        0.84000    0.59120    0.35310    1.000
    H58      H        0.75650    0.51230    0.36270    1.000
    C58      C        0.03880    0.53720    0.26710    1.000
    H59      H        0.05650    0.58900    0.26170    1.000
    C59      C        0.15880    0.96260    0.44700    1.000
    H60      H        0.21400    0.01110    0.44350    1.000
    H61      H        0.13650    0.93600    0.39760    1.000
    C60      C        0.98350    0.97530    0.46670    1.000
    H62      H        0.93880    0.92680    0.47800    1.000
    H63      H        0.89650    0.99800    0.42230    1.000
    Zn4      Zn       0.11899    0.30869    0.23341    1.000
    O16      O        0.20670    0.31700    0.14450    1.000
    O17      O        0.44560    0.38210    0.20590    1.000
    O18      O        0.73140    0.41770    0.99030    1.000
    O19      O        0.09140    0.23230    0.87250    1.000
    O20      O        0.28670    0.25250    0.81380    1.000
    N13      N        0.89750    0.25100    0.18260    1.000
    N14      N        0.64210    0.19830    0.16260    1.000
    N15      N        0.94220    0.91200    0.23850    1.000
    N16      N        0.07800    0.00510    0.20180    1.000
    C61      C        0.23100    0.26040    0.87170    1.000
    C62      C        0.34110    0.30460    0.94110    1.000
    C63      C        0.29550    0.30730    0.00930    1.000
    H64      H        0.19670    0.28150    0.01230    1.000
    C64      C        0.39700    0.34810    0.07290    1.000
    C65      C        0.58800    0.38320    0.00050    1.000
    C66      C        0.48870    0.34260    0.93710    1.000
    H65      H        0.52040    0.34060    0.89170    1.000
    C67      C        0.54350    0.38660    0.06890    1.000
    H66      H        0.61140    0.41450    0.11150    1.000
    C68      C        0.34930    0.35060    0.14780    1.000
    C69      C        0.68580    0.18670    0.09700    1.000
    H67      H        0.62060    0.16080    0.05250    1.000
    C70      C        0.84560    0.22090    0.10920    1.000
    H68      H        0.90780    0.22310    0.07350    1.000
    C71      C        0.77050    0.23640    0.21250    1.000
    H69      H        0.77140    0.25090    0.26230    1.000
    C72      C        0.48470    0.17030    0.17920    1.000
    H70      H        0.38820    0.16760    0.13100    1.000
    H71      H        0.45280    0.20560    0.21400    1.000
    C73      C        0.51660    0.09380    0.21590    1.000
    H72      H        0.54040    0.05830    0.17920    1.000
    H73      H        0.62020    0.09620    0.26130    1.000
    C74      C        0.36480    0.06290    0.24130    1.000
    H74      H        0.33260    0.10050    0.27390    1.000
    H75      H        0.40270    0.01730    0.27230    1.000
    C75      C        0.87670    0.97990    0.25430    1.000
    H76      H        0.78720    0.98540    0.27640    1.000
    C76      C        0.06520    0.93000    0.20850    1.000
    H77      H        0.13510    0.89470    0.19370    1.000
    C77      C        0.20950    0.04470    0.17380    1.000
    H78      H        0.16000    0.09120    0.14690    1.000
    H79      H        0.24350    0.01230    0.13730    1.000
    C78      C        0.96120    0.03720    0.23290    1.000
    H80      H        0.94350    0.08900    0.23830    1.000
    C79      C        0.84120    0.46260    0.05300    1.000
    H81      H        0.78600    0.51110    0.05650    1.000
    H82      H        0.86350    0.43600    0.10240    1.000
    C80      C        0.01650    0.47530    0.03330    1.000
    H83      H        0.06120    0.42680    0.02200    1.000
    H84      H        0.10350    0.49800    0.07770    1.000
