# CIF file generated by openbabel 3.1.0, see https://openbabel.org
data_I
_chemical_name_common 'image0'
_cell_length_a 17.314
_cell_length_b 5.3628
_cell_length_c 23.927
_cell_angle_alpha 90
_cell_angle_beta 133.577
_cell_angle_gamma 90
_space_group_name_H-M_alt 'P 1'
_space_group_name_Hall 'P 1'
loop_
    _symmetry_equiv_pos_as_xyz
    x,y,z
loop_
    _atom_site_label
    _atom_site_type_symbol
    _atom_site_fract_x
    _atom_site_fract_y
    _atom_site_fract_z
    _atom_site_occupancy
    O1       O        0.60770    0.20140    0.56530    1.000
    O2       O        0.91530    0.74670    0.94340    1.000
    N1       N        0.89470    0.80400    0.63000    1.000
    N2       N        0.55380    0.02000    0.45820    1.000
    H1       H        0.50690    0.92430    0.41970    1.000
    N3       N        0.87220    0.80360    0.74060    1.000
    N4       N        0.89690    0.15440    0.91140    1.000
    H2       H        0.92730    0.29800    0.92630    1.000
    C1       C        0.90420    0.64430    0.59180    1.000
    H3       H        0.96290    0.53840    0.62010    1.000
    C2       C        0.83110    0.63050    0.51260    1.000
    H4       H        0.84020    0.51670    0.48820    1.000
    C3       C        0.74350    0.78830    0.46970    1.000
    H5       H        0.69330    0.78170    0.41610    1.000
    C4       C        0.73190    0.95430    0.50710    1.000
    C5       C        0.80920    0.95600    0.58700    1.000
    H6       H        0.80160    0.06870    0.61250    1.000
    C6       C        0.63620    0.12350    0.46420    1.000
    H7       H        0.65860    0.28250    0.49070    1.000
    H8       H        0.60730    0.15360    0.41280    1.000
    C7       C        0.54700    0.06470    0.50860    1.000
    C8       C        0.79050    0.64700    0.69320    1.000
    H9       H        0.79080    0.53940    0.66290    1.000
    C9       C        0.70540    0.63850    0.68740    1.000
    H10      H        0.64920    0.52900    0.65320    1.000
    C10      C        0.70500    0.79380    0.73290    1.000
    H11      H        0.64880    0.78880    0.73030    1.000
    C11      C        0.78870    0.95720    0.78250    1.000
    C12      C        0.87010    0.95700    0.78400    1.000
    H12      H        0.92620    0.06860    0.81670    1.000
    C13      C        0.79140    0.12860    0.83400    1.000
    H13      H        0.76620    0.29210    0.81020    1.000
    H14      H        0.74270    0.06520    0.83780    1.000
    C14      C        0.94710    0.96430    0.95950    1.000
    O3       O        0.39230    0.20140    0.93470    1.000
    O4       O        0.08470    0.74670    0.55660    1.000
    N5       N        0.10530    0.80400    0.87000    1.000
    N6       N        0.44620    0.02000    0.04180    1.000
    H15      H        0.49310    0.92430    0.08030    1.000
    N7       N        0.12780    0.80360    0.75940    1.000
    N8       N        0.10310    0.15440    0.58860    1.000
    H16      H        0.07270    0.29800    0.57370    1.000
    C15      C        0.09580    0.64430    0.90820    1.000
    H17      H        0.03710    0.53840    0.87990    1.000
    C16      C        0.16890    0.63050    0.98740    1.000
    H18      H        0.15980    0.51670    0.01180    1.000
    C17      C        0.25650    0.78830    0.03030    1.000
    H19      H        0.30670    0.78170    0.08390    1.000
    C18      C        0.26810    0.95430    0.99290    1.000
    C19      C        0.19080    0.95600    0.91300    1.000
    H20      H        0.19840    0.06870    0.88750    1.000
    C20      C        0.36380    0.12350    0.03580    1.000
    H21      H        0.34140    0.28250    0.00930    1.000
    H22      H        0.39270    0.15360    0.08720    1.000
    C21      C        0.45300    0.06470    0.99140    1.000
    C22      C        0.20950    0.64700    0.80680    1.000
    H23      H        0.20920    0.53940    0.83710    1.000
    C23      C        0.29460    0.63850    0.81260    1.000
    H24      H        0.35080    0.52900    0.84680    1.000
    C24      C        0.29500    0.79380    0.76710    1.000
    H25      H        0.35120    0.78880    0.76970    1.000
    C25      C        0.21130    0.95720    0.71750    1.000
    C26      C        0.12990    0.95700    0.71600    1.000
    H26      H        0.07380    0.06860    0.68330    1.000
    C27      C        0.20860    0.12860    0.66600    1.000
    H27      H        0.23380    0.29210    0.68980    1.000
    H28      H        0.25730    0.06520    0.66220    1.000
    C28      C        0.05290    0.96430    0.54050    1.000
    O5       O        0.39230    0.79860    0.43470    1.000
    O6       O        0.08470    0.25330    0.05660    1.000
    N9       N        0.10530    0.19600    0.37000    1.000
    N10      N        0.44620    0.98000    0.54180    1.000
    H29      H        0.49310    0.07570    0.58030    1.000
    N11      N        0.12780    0.19640    0.25940    1.000
    N12      N        0.10310    0.84560    0.08860    1.000
    H30      H        0.07270    0.70200    0.07370    1.000
    C29      C        0.09580    0.35570    0.40820    1.000
    H31      H        0.03710    0.46160    0.37990    1.000
    C30      C        0.16890    0.36950    0.48740    1.000
    H32      H        0.15980    0.48330    0.51180    1.000
    C31      C        0.25650    0.21170    0.53030    1.000
    H33      H        0.30670    0.21830    0.58390    1.000
    C32      C        0.26810    0.04570    0.49290    1.000
    C33      C        0.19080    0.04400    0.41300    1.000
    H34      H        0.19840    0.93130    0.38750    1.000
    C34      C        0.36380    0.87650    0.53580    1.000
    H35      H        0.34140    0.71750    0.50930    1.000
    H36      H        0.39270    0.84640    0.58720    1.000
    C35      C        0.45300    0.93530    0.49140    1.000
    C36      C        0.20950    0.35300    0.30680    1.000
    H37      H        0.20920    0.46060    0.33710    1.000
    C37      C        0.29460    0.36150    0.31260    1.000
    H38      H        0.35080    0.47100    0.34680    1.000
    C38      C        0.29500    0.20620    0.26710    1.000
    H39      H        0.35120    0.21120    0.26970    1.000
    C39      C        0.21130    0.04280    0.21750    1.000
    C40      C        0.12990    0.04300    0.21600    1.000
    H40      H        0.07380    0.93140    0.18330    1.000
    C41      C        0.20860    0.87140    0.16600    1.000
    H41      H        0.23380    0.70790    0.18980    1.000
    H42      H        0.25730    0.93480    0.16220    1.000
    C42      C        0.05290    0.03570    0.04050    1.000
    O7       O        0.60770    0.79860    0.06530    1.000
    O8       O        0.91530    0.25330    0.44340    1.000
    N13      N        0.89470    0.19600    0.13000    1.000
    N14      N        0.55380    0.98000    0.95820    1.000
    H43      H        0.50690    0.07570    0.91970    1.000
    N15      N        0.87220    0.19640    0.24060    1.000
    N16      N        0.89690    0.84560    0.41140    1.000
    H44      H        0.92730    0.70200    0.42630    1.000
    C43      C        0.90420    0.35570    0.09180    1.000
    H45      H        0.96290    0.46160    0.12010    1.000
    C44      C        0.83110    0.36950    0.01260    1.000
    H46      H        0.84020    0.48330    0.98820    1.000
    C45      C        0.74350    0.21170    0.96970    1.000
    H47      H        0.69330    0.21830    0.91610    1.000
    C46      C        0.73190    0.04570    0.00710    1.000
    C47      C        0.80920    0.04400    0.08700    1.000
    H48      H        0.80160    0.93130    0.11250    1.000
    C48      C        0.63620    0.87650    0.96420    1.000
    H49      H        0.65860    0.71750    0.99070    1.000
    H50      H        0.60730    0.84640    0.91280    1.000
    C49      C        0.54700    0.93530    0.00860    1.000
    C50      C        0.79050    0.35300    0.19320    1.000
    H51      H        0.79080    0.46060    0.16290    1.000
    C51      C        0.70540    0.36150    0.18740    1.000
    H52      H        0.64920    0.47100    0.15320    1.000
    C52      C        0.70500    0.20620    0.23290    1.000
    H53      H        0.64880    0.21120    0.23030    1.000
    C53      C        0.78870    0.04280    0.28250    1.000
    C54      C        0.87010    0.04300    0.28400    1.000
    H54      H        0.92620    0.93140    0.31670    1.000
    C55      C        0.79140    0.87140    0.33400    1.000
    H55      H        0.76620    0.70790    0.31020    1.000
    H56      H        0.74270    0.93480    0.33780    1.000
    C56      C        0.94710    0.03570    0.45950    1.000
    Br1      Br       0.00000    0.30329    0.75000    1.000
    Cu1      Cu       0.00000    0.80431    0.75000    1.000
    Br2      Br       0.00000    0.69671    0.25000    1.000
    Cu2      Cu       0.00000    0.19569    0.25000    1.000
