# CIF file generated by openbabel 3.1.0, see https://openbabel.org
data_I
_chemical_name_common 'FABFOF_ion_b'
_cell_length_a 9.592
_cell_length_b 9.592
_cell_length_c 11.021
_cell_angle_alpha 91.4204
_cell_angle_beta 91.4204
_cell_angle_gamma 105.98
_space_group_name_H-M_alt 'P 1'
_space_group_name_Hall 'P 1'
loop_
    _symmetry_equiv_pos_as_xyz
    x,y,z
loop_
    _atom_site_label
    _atom_site_type_symbol
    _atom_site_fract_x
    _atom_site_fract_y
    _atom_site_fract_z
    _atom_site_occupancy
    C1       C        0.50020    0.11960    0.42384    1.000
    C2       C        0.49341    0.23512    0.33680    1.000
    C3       C        0.51988    0.14573    0.55117    1.000
    C4       C        0.51655    0.03027    0.62786    1.000
    H5       H        0.53224    0.05328    0.72487    1.000
    C6       C        0.54489    0.29085    0.60900    1.000
    N7       N        0.84177    0.74755    0.53114    1.000
    O8       O        0.51564    0.37894    0.37576    1.000
    O9       O        0.46748    0.20416    0.22912    1.000
    O10      O        0.65347    0.38696    0.58786    1.000
    O11      O        0.44741    0.31601    0.69235    1.000
    C12      C        0.88276    0.50182    0.08207    1.000
    C13      C        0.76723    0.50799    0.16923    1.000
    C14      C        0.85690    0.48353    0.95461    1.000
    C15      C        0.97248    0.48715    0.87796    1.000
    H16      H        0.94967    0.47211    0.78089    1.000
    C17      C        0.71181    0.45880    0.89663    1.000
    N18      N        0.25344    0.13359    0.95634    1.000
    O19      O        0.62366    0.48712    0.13017    1.000
    O20      O        0.79793    0.53226    0.27709    1.000
    O21      O        0.61533    0.35067    0.91812    1.000
    O22      O        0.68692    0.55592    0.81281    1.000
    C23      C        0.49697    0.88757    0.58207    1.000
    C24      C        0.50341    0.77209    0.66921    1.000
    C25      C        0.47761    0.86147    0.45468    1.000
    C26      C        0.48073    0.97691    0.37803    1.000
    H27      H        0.46491    0.95391    0.28103    1.000
    C28      C        0.45300    0.71636    0.39679    1.000
    N29      N        0.14216    0.28149    0.46049    1.000
    O30      O        0.48155    0.62835    0.63019    1.000
    O31      O        0.52876    0.80294    0.77693    1.000
    O32      O        0.34473    0.61993    0.41809    1.000
    O33      O        0.55046    0.69157    0.31327    1.000
    C34      C        0.11502    0.50590    0.92385    1.000
    C35      C        0.23052    0.49914    0.83678    1.000
    C36      C        0.14092    0.52452    0.05127    1.000
    C37      C        0.02531    0.52066    0.12794    1.000
    H38      H        0.04809    0.53537    0.22502    1.000
    C39      C        0.28605    0.54941    0.10910    1.000
    N40      N        0.73744    0.85087    0.03960    1.000
    O41      O        0.37409    0.51978    0.87591    1.000
    O42      O        0.19980    0.47468    0.72893    1.000
    O43      O        0.38225    0.65791    0.08791    1.000
    O44      O        0.31122    0.45187    0.19239    1.000
    Zn45     Zn       0.50040    0.50223    0.25294    1.000
    Zn46     Zn       0.49737    0.50519    0.75283    1.000
    H47      H        0.87683    0.81250    0.45711    1.000
    H48      H        0.82770    0.81240    0.60480    1.000
    H49      H        0.91883    0.69347    0.55463    1.000
    H50      H        0.23865    0.12743    0.86195    1.000
    H51      H        0.22585    0.22436    0.99106    1.000
    H52      H        0.36191    0.14240    0.97909    1.000
    H53      H        0.14643    0.26064    0.36742    1.000
    H54      H        0.08093    0.35478    0.47486    1.000
    H55      H        0.24719    0.32575    0.49659    1.000
    H56      H        0.77060    0.92030    0.96790    1.000
    H57      H        0.68071    0.89774    0.10075    1.000
    H58      H        0.82830    0.83319    0.08391    1.000
    H59      H        0.67011    0.75195    0.00574    1.000
    H60      H        0.74322    0.67156    0.50788    1.000
    H61      H        0.09423    0.18478    0.50314    1.000
    H62      H        0.18743    0.03998    0.99330    1.000
