# CIF file generated by openbabel 3.1.0, see https://openbabel.org
data_I
_chemical_name_common 'image0'
_cell_length_a 26.7063
_cell_length_b 19.513
_cell_length_c 28.8938
_cell_angle_alpha 90
_cell_angle_beta 90
_cell_angle_gamma 90
_space_group_name_H-M_alt 'P 1'
_space_group_name_Hall 'P 1'
loop_
    _symmetry_equiv_pos_as_xyz
    x,y,z
loop_
    _atom_site_label
    _atom_site_type_symbol
    _atom_site_fract_x
    _atom_site_fract_y
    _atom_site_fract_z
    _atom_site_occupancy
    Cd1      Cd       0.52018    0.72844    0.01550    1.000
    Cd2      Cd       0.46481    0.86889    0.07853    1.000
    Cd3      Cd       0.84745    0.87875    0.20439    1.000
    Cd4      Cd       0.76401    0.74367    0.24557    1.000
    O1       O        0.72258    0.35259    0.77178    1.000
    O2       O        0.69189    0.25249    0.79171    1.000
    O3       O        0.55938    0.23964    0.91161    1.000
    O4       O        0.52592    0.33546    0.93933    1.000
    O5       O        0.69548    0.65725    0.77033    1.000
    O6       O        0.68883    0.74730    0.81642    1.000
    O7       O        0.58073    0.72961    0.95752    1.000
    O8       O        0.54891    0.62978    0.97649    1.000
    O9       O        0.54207    0.82806    0.05332    1.000
    O10      O        0.59100    0.74203    0.07249    1.000
    O11      O        0.55021    0.12524    0.99713    1.000
    O12      O        0.53824    0.22609    0.03240    1.000
    O13      O        0.63804    0.27252    0.17458    1.000
    O14      O        0.67949    0.18549    0.20722    1.000
    O15      O        0.73106    0.79104    0.18306    1.000
    O16      O        0.77077    0.89122    0.17304    1.000
    C1       C        0.55601    0.30280    0.91375    1.000
    C2       C        0.59121    0.34420    0.88414    1.000
    C3       C        0.62287    0.31210    0.85319    1.000
    H1       H        0.62170    0.26370    0.84960    1.000
    C4       C        0.65662    0.35090    0.82728    1.000
    C5       C        0.69198    0.31640    0.79484    1.000
    C6       C        0.65803    0.42120    0.83323    1.000
    H2       H        0.68160    0.44730    0.81610    1.000
    C7       C        0.62589    0.45482    0.86364    1.000
    C8       C        0.59218    0.41530    0.88882    1.000
    H3       H        0.56950    0.43700    0.90950    1.000
    C9       C        0.62772    0.53080    0.86988    1.000
    C10      C        0.65210    0.57180    0.83724    1.000
    H4       H        0.66710    0.55140    0.81080    1.000
    C11      C        0.65447    0.64270    0.84338    1.000
    C12      C        0.63147    0.67350    0.88098    1.000
    H5       H        0.63340    0.72170    0.88510    1.000
    C13      C        0.60541    0.63330    0.91284    1.000
    C14      C        0.60447    0.56240    0.90720    1.000
    H6       H        0.58750    0.53510    0.92940    1.000
    C15      C        0.68090    0.68576    0.80828    1.000
    C16      C        0.57675    0.66610    0.95168    1.000
    C17      C        0.58079    0.80430    0.07340    1.000
    C18      C        0.61560    0.85410    0.09653    1.000
    C19      C        0.65652    0.83100    0.12133    1.000
    H7       H        0.66180    0.78310    0.12500    1.000
    C20      C        0.69012    0.87710    0.14104    1.000
    C21      C        0.68131    0.94730    0.13655    1.000
    H8       H        0.70450    0.97900    0.14930    1.000
    C22      C        0.63855    0.97200    0.11337    1.000
    C23      C        0.60622    0.92420    0.09320    1.000
    H9       H        0.57740    0.93980    0.07700    1.000
    C24      C        0.62739    0.04670    0.10988    1.000
    C25      C        0.60026    0.07290    0.07242    1.000
    H10      H        0.59140    0.04320    0.04770    1.000
    C26      C        0.58592    0.14150    0.07064    1.000
    C27      C        0.60088    0.18550    0.10580    1.000
    H11      H        0.59060    0.23210    0.10520    1.000
    C28      C        0.63059    0.16210    0.14171    1.000
    C29      C        0.64333    0.09270    0.14408    1.000
    H12      H        0.66300    0.07660    0.16920    1.000
    C30      C        0.65096    0.21100    0.17721    1.000
    C31      C        0.55584    0.16670    0.02990    1.000
    C32      C        0.73443    0.85130    0.16779    1.000
    Cd5      Cd       0.97982    0.77156    0.51550    1.000
    Cd6      Cd       0.03519    0.63111    0.57853    1.000
    Cd7      Cd       0.65255    0.62125    0.70439    1.000
    Cd8      Cd       0.73599    0.75633    0.74557    1.000
    O17      O        0.77742    0.14741    0.27178    1.000
    O18      O        0.80811    0.24751    0.29171    1.000
    O19      O        0.94062    0.26036    0.41161    1.000
    O20      O        0.97408    0.16454    0.43933    1.000
    O21      O        0.80452    0.84275    0.27033    1.000
    O22      O        0.81117    0.75270    0.31642    1.000
    O23      O        0.91927    0.77039    0.45752    1.000
    O24      O        0.95109    0.87022    0.47649    1.000
    O25      O        0.95793    0.67194    0.55332    1.000
    O26      O        0.90900    0.75797    0.57249    1.000
    O27      O        0.94979    0.37476    0.49713    1.000
    O28      O        0.96176    0.27391    0.53240    1.000
    O29      O        0.86196    0.22748    0.67458    1.000
    O30      O        0.82051    0.31451    0.70722    1.000
    O31      O        0.76894    0.70896    0.68306    1.000
    O32      O        0.72923    0.60878    0.67304    1.000
    C33      C        0.94399    0.19720    0.41375    1.000
    C34      C        0.90879    0.15580    0.38414    1.000
    C35      C        0.87713    0.18790    0.35319    1.000
    H13      H        0.87830    0.23630    0.34960    1.000
    C36      C        0.84338    0.14910    0.32728    1.000
    C37      C        0.80802    0.18360    0.29484    1.000
    C38      C        0.84197    0.07880    0.33323    1.000
    H14      H        0.81840    0.05270    0.31610    1.000
    C39      C        0.87411    0.04518    0.36364    1.000
    C40      C        0.90782    0.08470    0.38882    1.000
    H15      H        0.93050    0.06300    0.40950    1.000
    C41      C        0.87228    0.96920    0.36988    1.000
    C42      C        0.84790    0.92820    0.33724    1.000
    H16      H        0.83290    0.94860    0.31080    1.000
    C43      C        0.84553    0.85730    0.34338    1.000
    C44      C        0.86853    0.82650    0.38098    1.000
    H17      H        0.86660    0.77830    0.38510    1.000
    C45      C        0.89459    0.86670    0.41284    1.000
    C46      C        0.89553    0.93760    0.40720    1.000
    H18      H        0.91250    0.96490    0.42940    1.000
    C47      C        0.81910    0.81424    0.30828    1.000
    C48      C        0.92325    0.83390    0.45168    1.000
    C49      C        0.91921    0.69570    0.57340    1.000
    C50      C        0.88440    0.64590    0.59653    1.000
    C51      C        0.84348    0.66900    0.62133    1.000
    H19      H        0.83820    0.71690    0.62500    1.000
    C52      C        0.80988    0.62290    0.64104    1.000
    C53      C        0.81869    0.55270    0.63655    1.000
    H20      H        0.79550    0.52100    0.64930    1.000
    C54      C        0.86145    0.52800    0.61337    1.000
    C55      C        0.89378    0.57580    0.59320    1.000
    H21      H        0.92260    0.56020    0.57700    1.000
    C56      C        0.87261    0.45330    0.60988    1.000
    C57      C        0.89974    0.42710    0.57242    1.000
    H22      H        0.90860    0.45680    0.54770    1.000
    C58      C        0.91408    0.35850    0.57064    1.000
    C59      C        0.89912    0.31450    0.60580    1.000
    H23      H        0.90940    0.26790    0.60520    1.000
    C60      C        0.86941    0.33790    0.64171    1.000
    C61      C        0.85667    0.40730    0.64408    1.000
    H24      H        0.83700    0.42340    0.66920    1.000
    C62      C        0.84904    0.28900    0.67721    1.000
    C63      C        0.94416    0.33330    0.52990    1.000
    C64      C        0.76557    0.64870    0.66779    1.000
    Cd9      Cd       0.47982    0.72844    0.48450    1.000
    Cd10     Cd       0.53519    0.86889    0.42147    1.000
    Cd11     Cd       0.15255    0.87875    0.29561    1.000
    Cd12     Cd       0.23599    0.74367    0.25443    1.000
    O33      O        0.27742    0.35259    0.72822    1.000
    O34      O        0.30811    0.25249    0.70829    1.000
    O35      O        0.44062    0.23964    0.58839    1.000
    O36      O        0.47408    0.33546    0.56067    1.000
    O37      O        0.30452    0.65725    0.72967    1.000
    O38      O        0.31117    0.74730    0.68358    1.000
    O39      O        0.41927    0.72961    0.54248    1.000
    O40      O        0.45109    0.62978    0.52351    1.000
    O41      O        0.45793    0.82806    0.44668    1.000
    O42      O        0.40900    0.74203    0.42751    1.000
    O43      O        0.44979    0.12524    0.50287    1.000
    O44      O        0.46176    0.22609    0.46760    1.000
    O45      O        0.36196    0.27252    0.32542    1.000
    O46      O        0.32051    0.18549    0.29278    1.000
    O47      O        0.26894    0.79104    0.31694    1.000
    O48      O        0.22923    0.89122    0.32696    1.000
    C65      C        0.44399    0.30280    0.58625    1.000
    C66      C        0.40879    0.34420    0.61586    1.000
    C67      C        0.37713    0.31210    0.64681    1.000
    H25      H        0.37830    0.26370    0.65040    1.000
    C68      C        0.34338    0.35090    0.67272    1.000
    C69      C        0.30802    0.31640    0.70516    1.000
    C70      C        0.34197    0.42120    0.66677    1.000
    H26      H        0.31840    0.44730    0.68390    1.000
    C71      C        0.37411    0.45482    0.63636    1.000
    C72      C        0.40782    0.41530    0.61118    1.000
    H27      H        0.43050    0.43700    0.59050    1.000
    C73      C        0.37228    0.53080    0.63012    1.000
    C74      C        0.34790    0.57180    0.66276    1.000
    H28      H        0.33290    0.55140    0.68920    1.000
    C75      C        0.34553    0.64270    0.65662    1.000
    C76      C        0.36853    0.67350    0.61902    1.000
    H29      H        0.36660    0.72170    0.61490    1.000
    C77      C        0.39459    0.63330    0.58716    1.000
    C78      C        0.39553    0.56240    0.59280    1.000
    H30      H        0.41250    0.53510    0.57060    1.000
    C79      C        0.31910    0.68576    0.69172    1.000
    C80      C        0.42325    0.66610    0.54832    1.000
    C81      C        0.41921    0.80430    0.42660    1.000
    C82      C        0.38440    0.85410    0.40347    1.000
    C83      C        0.34348    0.83100    0.37867    1.000
    H31      H        0.33820    0.78310    0.37500    1.000
    C84      C        0.30988    0.87710    0.35896    1.000
    C85      C        0.31869    0.94730    0.36345    1.000
    H32      H        0.29550    0.97900    0.35070    1.000
    C86      C        0.36145    0.97200    0.38663    1.000
    C87      C        0.39378    0.92420    0.40680    1.000
    H33      H        0.42260    0.93980    0.42300    1.000
    C88      C        0.37261    0.04670    0.39012    1.000
    C89      C        0.39974    0.07290    0.42758    1.000
    H34      H        0.40860    0.04320    0.45230    1.000
    C90      C        0.41408    0.14150    0.42936    1.000
    C91      C        0.39912    0.18550    0.39420    1.000
    H35      H        0.40940    0.23210    0.39480    1.000
    C92      C        0.36941    0.16210    0.35829    1.000
    C93      C        0.35667    0.09270    0.35592    1.000
    H36      H        0.33700    0.07660    0.33080    1.000
    C94      C        0.34904    0.21100    0.32279    1.000
    C95      C        0.44416    0.16670    0.47010    1.000
    C96      C        0.26557    0.85130    0.33221    1.000
    Cd13     Cd       0.02018    0.77156    0.98450    1.000
    Cd14     Cd       0.96481    0.63111    0.92147    1.000
    Cd15     Cd       0.34745    0.62125    0.79561    1.000
    Cd16     Cd       0.26401    0.75633    0.75443    1.000
    O49      O        0.22258    0.14741    0.22822    1.000
    O50      O        0.19189    0.24751    0.20829    1.000
    O51      O        0.05938    0.26036    0.08839    1.000
    O52      O        0.02592    0.16454    0.06067    1.000
    O53      O        0.19548    0.84275    0.22967    1.000
    O54      O        0.18883    0.75270    0.18358    1.000
    O55      O        0.08073    0.77039    0.04248    1.000
    O56      O        0.04891    0.87022    0.02351    1.000
    O57      O        0.04207    0.67194    0.94668    1.000
    O58      O        0.09100    0.75797    0.92751    1.000
    O59      O        0.05021    0.37476    0.00287    1.000
    O60      O        0.03824    0.27391    0.96760    1.000
    O61      O        0.13804    0.22748    0.82542    1.000
    O62      O        0.17949    0.31451    0.79278    1.000
    O63      O        0.23106    0.70896    0.81694    1.000
    O64      O        0.27077    0.60878    0.82696    1.000
    C97      C        0.05601    0.19720    0.08625    1.000
    C98      C        0.09121    0.15580    0.11586    1.000
    C99      C        0.12287    0.18790    0.14681    1.000
    H37      H        0.12170    0.23630    0.15040    1.000
    C100     C        0.15662    0.14910    0.17272    1.000
    C101     C        0.19198    0.18360    0.20516    1.000
    C102     C        0.15803    0.07880    0.16677    1.000
    H38      H        0.18160    0.05270    0.18390    1.000
    C103     C        0.12589    0.04518    0.13636    1.000
    C104     C        0.09218    0.08470    0.11118    1.000
    H39      H        0.06950    0.06300    0.09050    1.000
    C105     C        0.12772    0.96920    0.13012    1.000
    C106     C        0.15210    0.92820    0.16276    1.000
    H40      H        0.16710    0.94860    0.18920    1.000
    C107     C        0.15447    0.85730    0.15662    1.000
    C108     C        0.13147    0.82650    0.11902    1.000
    H41      H        0.13340    0.77830    0.11490    1.000
    C109     C        0.10541    0.86670    0.08716    1.000
    C110     C        0.10447    0.93760    0.09280    1.000
    H42      H        0.08750    0.96490    0.07060    1.000
    C111     C        0.18090    0.81424    0.19172    1.000
    C112     C        0.07675    0.83390    0.04832    1.000
    C113     C        0.08079    0.69570    0.92660    1.000
    C114     C        0.11560    0.64590    0.90347    1.000
    C115     C        0.15652    0.66900    0.87867    1.000
    H43      H        0.16180    0.71690    0.87500    1.000
    C116     C        0.19012    0.62290    0.85896    1.000
    C117     C        0.18131    0.55270    0.86345    1.000
    H44      H        0.20450    0.52100    0.85070    1.000
    C118     C        0.13855    0.52800    0.88663    1.000
    C119     C        0.10622    0.57580    0.90680    1.000
    H45      H        0.07740    0.56020    0.92300    1.000
    C120     C        0.12739    0.45330    0.89012    1.000
    C121     C        0.10026    0.42710    0.92758    1.000
    H46      H        0.09140    0.45680    0.95230    1.000
    C122     C        0.08592    0.35850    0.92936    1.000
    C123     C        0.10088    0.31450    0.89420    1.000
    H47      H        0.09060    0.26790    0.89480    1.000
    C124     C        0.13059    0.33790    0.85829    1.000
    C125     C        0.14333    0.40730    0.85592    1.000
    H48      H        0.16300    0.42340    0.83080    1.000
    C126     C        0.15096    0.28900    0.82279    1.000
    C127     C        0.05584    0.33330    0.97010    1.000
    C128     C        0.23443    0.64870    0.83221    1.000
    Cd17     Cd       0.47982    0.27156    0.98450    1.000
    Cd18     Cd       0.53519    0.13111    0.92147    1.000
    Cd19     Cd       0.15255    0.12125    0.79561    1.000
    Cd20     Cd       0.23599    0.25633    0.75443    1.000
    O65      O        0.27742    0.64741    0.22822    1.000
    O66      O        0.30811    0.74751    0.20829    1.000
    O67      O        0.44062    0.76036    0.08839    1.000
    O68      O        0.47408    0.66454    0.06067    1.000
    O69      O        0.30452    0.34275    0.22967    1.000
    O70      O        0.31117    0.25270    0.18358    1.000
    O71      O        0.41927    0.27039    0.04248    1.000
    O72      O        0.45109    0.37022    0.02351    1.000
    O73      O        0.45793    0.17194    0.94668    1.000
    O74      O        0.40900    0.25797    0.92751    1.000
    O75      O        0.44979    0.87476    0.00287    1.000
    O76      O        0.46176    0.77391    0.96760    1.000
    O77      O        0.36196    0.72748    0.82542    1.000
    O78      O        0.32051    0.81451    0.79278    1.000
    O79      O        0.26894    0.20896    0.81694    1.000
    O80      O        0.22923    0.10878    0.82696    1.000
    C129     C        0.44399    0.69720    0.08625    1.000
    C130     C        0.40879    0.65580    0.11586    1.000
    C131     C        0.37713    0.68790    0.14681    1.000
    H49      H        0.37830    0.73630    0.15040    1.000
    C132     C        0.34338    0.64910    0.17272    1.000
    C133     C        0.30802    0.68360    0.20516    1.000
    C134     C        0.34197    0.57880    0.16677    1.000
    H50      H        0.31840    0.55270    0.18390    1.000
    C135     C        0.37411    0.54518    0.13636    1.000
    C136     C        0.40782    0.58470    0.11118    1.000
    H51      H        0.43050    0.56300    0.09050    1.000
    C137     C        0.37228    0.46920    0.13012    1.000
    C138     C        0.34790    0.42820    0.16276    1.000
    H52      H        0.33290    0.44860    0.18920    1.000
    C139     C        0.34553    0.35730    0.15662    1.000
    C140     C        0.36853    0.32650    0.11902    1.000
    H53      H        0.36660    0.27830    0.11490    1.000
    C141     C        0.39459    0.36670    0.08716    1.000
    C142     C        0.39553    0.43760    0.09280    1.000
    H54      H        0.41250    0.46490    0.07060    1.000
    C143     C        0.31910    0.31424    0.19172    1.000
    C144     C        0.42325    0.33390    0.04832    1.000
    C145     C        0.41921    0.19570    0.92660    1.000
    C146     C        0.38440    0.14590    0.90347    1.000
    C147     C        0.34348    0.16900    0.87867    1.000
    H55      H        0.33820    0.21690    0.87500    1.000
    C148     C        0.30988    0.12290    0.85896    1.000
    C149     C        0.31869    0.05270    0.86345    1.000
    H56      H        0.29550    0.02100    0.85070    1.000
    C150     C        0.36145    0.02800    0.88663    1.000
    C151     C        0.39378    0.07580    0.90680    1.000
    H57      H        0.42260    0.06020    0.92300    1.000
    C152     C        0.37261    0.95330    0.89012    1.000
    C153     C        0.39974    0.92710    0.92758    1.000
    H58      H        0.40860    0.95680    0.95230    1.000
    C154     C        0.41408    0.85850    0.92936    1.000
    C155     C        0.39912    0.81450    0.89420    1.000
    H59      H        0.40940    0.76790    0.89480    1.000
    C156     C        0.36941    0.83790    0.85829    1.000
    C157     C        0.35667    0.90730    0.85592    1.000
    H60      H        0.33700    0.92340    0.83080    1.000
    C158     C        0.34904    0.78900    0.82279    1.000
    C159     C        0.44416    0.83330    0.97010    1.000
    C160     C        0.26557    0.14870    0.83221    1.000
    Cd21     Cd       0.02018    0.22844    0.48450    1.000
    Cd22     Cd       0.96481    0.36889    0.42147    1.000
    Cd23     Cd       0.34745    0.37875    0.29561    1.000
    Cd24     Cd       0.26401    0.24367    0.25443    1.000
    O81      O        0.22258    0.85259    0.72822    1.000
    O82      O        0.19189    0.75249    0.70829    1.000
    O83      O        0.05938    0.73964    0.58839    1.000
    O84      O        0.02592    0.83546    0.56067    1.000
    O85      O        0.19548    0.15725    0.72967    1.000
    O86      O        0.18883    0.24730    0.68358    1.000
    O87      O        0.08073    0.22961    0.54248    1.000
    O88      O        0.04891    0.12978    0.52351    1.000
    O89      O        0.04207    0.32806    0.44668    1.000
    O90      O        0.09100    0.24203    0.42751    1.000
    O91      O        0.05021    0.62524    0.50287    1.000
    O92      O        0.03824    0.72609    0.46760    1.000
    O93      O        0.13804    0.77252    0.32542    1.000
    O94      O        0.17949    0.68549    0.29278    1.000
    O95      O        0.23106    0.29104    0.31694    1.000
    O96      O        0.27077    0.39122    0.32696    1.000
    C161     C        0.05601    0.80280    0.58625    1.000
    C162     C        0.09121    0.84420    0.61586    1.000
    C163     C        0.12287    0.81210    0.64681    1.000
    H61      H        0.12170    0.76370    0.65040    1.000
    C164     C        0.15662    0.85090    0.67272    1.000
    C165     C        0.19198    0.81640    0.70516    1.000
    C166     C        0.15803    0.92120    0.66677    1.000
    H62      H        0.18160    0.94730    0.68390    1.000
    C167     C        0.12589    0.95482    0.63636    1.000
    C168     C        0.09218    0.91530    0.61118    1.000
    H63      H        0.06950    0.93700    0.59050    1.000
    C169     C        0.12772    0.03080    0.63012    1.000
    C170     C        0.15210    0.07180    0.66276    1.000
    H64      H        0.16710    0.05140    0.68920    1.000
    C171     C        0.15447    0.14270    0.65662    1.000
    C172     C        0.13147    0.17350    0.61902    1.000
    H65      H        0.13340    0.22170    0.61490    1.000
    C173     C        0.10541    0.13330    0.58716    1.000
    C174     C        0.10447    0.06240    0.59280    1.000
    H66      H        0.08750    0.03510    0.57060    1.000
    C175     C        0.18090    0.18576    0.69172    1.000
    C176     C        0.07675    0.16610    0.54832    1.000
    C177     C        0.08079    0.30430    0.42660    1.000
    C178     C        0.11560    0.35410    0.40347    1.000
    C179     C        0.15652    0.33100    0.37867    1.000
    H67      H        0.16180    0.28310    0.37500    1.000
    C180     C        0.19012    0.37710    0.35896    1.000
    C181     C        0.18131    0.44730    0.36345    1.000
    H68      H        0.20450    0.47900    0.35070    1.000
    C182     C        0.13855    0.47200    0.38663    1.000
    C183     C        0.10622    0.42420    0.40680    1.000
    H69      H        0.07740    0.43980    0.42300    1.000
    C184     C        0.12739    0.54670    0.39012    1.000
    C185     C        0.10026    0.57290    0.42758    1.000
    H70      H        0.09140    0.54320    0.45230    1.000
    C186     C        0.08592    0.64150    0.42936    1.000
    C187     C        0.10088    0.68550    0.39420    1.000
    H71      H        0.09060    0.73210    0.39480    1.000
    C188     C        0.13059    0.66210    0.35829    1.000
    C189     C        0.14333    0.59270    0.35592    1.000
    H72      H        0.16300    0.57660    0.33080    1.000
    C190     C        0.15096    0.71100    0.32279    1.000
    C191     C        0.05584    0.66670    0.47010    1.000
    C192     C        0.23443    0.35130    0.33221    1.000
    Cd25     Cd       0.52018    0.27156    0.51550    1.000
    Cd26     Cd       0.46481    0.13111    0.57853    1.000
    Cd27     Cd       0.84745    0.12125    0.70439    1.000
    Cd28     Cd       0.76401    0.25633    0.74557    1.000
    O97      O        0.72258    0.64741    0.27178    1.000
    O98      O        0.69189    0.74751    0.29171    1.000
    O99      O        0.55938    0.76036    0.41161    1.000
    O100     O        0.52592    0.66454    0.43933    1.000
    O101     O        0.69548    0.34275    0.27033    1.000
    O102     O        0.68883    0.25270    0.31642    1.000
    O103     O        0.58073    0.27039    0.45752    1.000
    O104     O        0.54891    0.37022    0.47649    1.000
    O105     O        0.54207    0.17194    0.55332    1.000
    O106     O        0.59100    0.25797    0.57249    1.000
    O107     O        0.55021    0.87476    0.49713    1.000
    O108     O        0.53824    0.77391    0.53240    1.000
    O109     O        0.63804    0.72748    0.67458    1.000
    O110     O        0.67949    0.81451    0.70722    1.000
    O111     O        0.73106    0.20896    0.68306    1.000
    O112     O        0.77077    0.10878    0.67304    1.000
    C193     C        0.55601    0.69720    0.41375    1.000
    C194     C        0.59121    0.65580    0.38414    1.000
    C195     C        0.62287    0.68790    0.35319    1.000
    H73      H        0.62170    0.73630    0.34960    1.000
    C196     C        0.65662    0.64910    0.32728    1.000
    C197     C        0.69198    0.68360    0.29484    1.000
    C198     C        0.65803    0.57880    0.33323    1.000
    H74      H        0.68160    0.55270    0.31610    1.000
    C199     C        0.62589    0.54518    0.36364    1.000
    C200     C        0.59218    0.58470    0.38882    1.000
    H75      H        0.56950    0.56300    0.40950    1.000
    C201     C        0.62772    0.46920    0.36988    1.000
    C202     C        0.65210    0.42820    0.33724    1.000
    H76      H        0.66710    0.44860    0.31080    1.000
    C203     C        0.65447    0.35730    0.34338    1.000
    C204     C        0.63147    0.32650    0.38098    1.000
    H77      H        0.63340    0.27830    0.38510    1.000
    C205     C        0.60541    0.36670    0.41284    1.000
    C206     C        0.60447    0.43760    0.40720    1.000
    H78      H        0.58750    0.46490    0.42940    1.000
    C207     C        0.68090    0.31424    0.30828    1.000
    C208     C        0.57675    0.33390    0.45168    1.000
    C209     C        0.58079    0.19570    0.57340    1.000
    C210     C        0.61560    0.14590    0.59653    1.000
    C211     C        0.65652    0.16900    0.62133    1.000
    H79      H        0.66180    0.21690    0.62500    1.000
    C212     C        0.69012    0.12290    0.64104    1.000
    C213     C        0.68131    0.05270    0.63655    1.000
    H80      H        0.70450    0.02100    0.64930    1.000
    C214     C        0.63855    0.02800    0.61337    1.000
    C215     C        0.60622    0.07580    0.59320    1.000
    H81      H        0.57740    0.06020    0.57700    1.000
    C216     C        0.62739    0.95330    0.60988    1.000
    C217     C        0.60026    0.92710    0.57242    1.000
    H82      H        0.59140    0.95680    0.54770    1.000
    C218     C        0.58592    0.85850    0.57064    1.000
    C219     C        0.60088    0.81450    0.60580    1.000
    H83      H        0.59060    0.76790    0.60520    1.000
    C220     C        0.63059    0.83790    0.64171    1.000
    C221     C        0.64333    0.90730    0.64408    1.000
    H84      H        0.66300    0.92340    0.66920    1.000
    C222     C        0.65096    0.78900    0.67721    1.000
    C223     C        0.55584    0.83330    0.52990    1.000
    C224     C        0.73443    0.14870    0.66779    1.000
    Cd29     Cd       0.97982    0.22844    0.01550    1.000
    Cd30     Cd       0.03519    0.36889    0.07853    1.000
    Cd31     Cd       0.65255    0.37875    0.20439    1.000
    Cd32     Cd       0.73599    0.24367    0.24557    1.000
    O113     O        0.77742    0.85259    0.77178    1.000
    O114     O        0.80811    0.75249    0.79171    1.000
    O115     O        0.94062    0.73964    0.91161    1.000
    O116     O        0.97408    0.83546    0.93933    1.000
    O117     O        0.80452    0.15725    0.77033    1.000
    O118     O        0.81117    0.24730    0.81642    1.000
    O119     O        0.91927    0.22961    0.95752    1.000
    O120     O        0.95109    0.12978    0.97649    1.000
    O121     O        0.95793    0.32806    0.05332    1.000
    O122     O        0.90900    0.24203    0.07249    1.000
    O123     O        0.94979    0.62524    0.99713    1.000
    O124     O        0.96176    0.72609    0.03240    1.000
    O125     O        0.86196    0.77252    0.17458    1.000
    O126     O        0.82051    0.68549    0.20722    1.000
    O127     O        0.76894    0.29104    0.18306    1.000
    O128     O        0.72923    0.39122    0.17304    1.000
    C225     C        0.94399    0.80280    0.91375    1.000
    C226     C        0.90879    0.84420    0.88414    1.000
    C227     C        0.87713    0.81210    0.85319    1.000
    H85      H        0.87830    0.76370    0.84960    1.000
    C228     C        0.84338    0.85090    0.82728    1.000
    C229     C        0.80802    0.81640    0.79484    1.000
    C230     C        0.84197    0.92120    0.83323    1.000
    H86      H        0.81840    0.94730    0.81610    1.000
    C231     C        0.87411    0.95482    0.86364    1.000
    C232     C        0.90782    0.91530    0.88882    1.000
    H87      H        0.93050    0.93700    0.90950    1.000
    C233     C        0.87228    0.03080    0.86988    1.000
    C234     C        0.84790    0.07180    0.83724    1.000
    H88      H        0.83290    0.05140    0.81080    1.000
    C235     C        0.84553    0.14270    0.84338    1.000
    C236     C        0.86853    0.17350    0.88098    1.000
    H89      H        0.86660    0.22170    0.88510    1.000
    C237     C        0.89459    0.13330    0.91284    1.000
    C238     C        0.89553    0.06240    0.90720    1.000
    H90      H        0.91250    0.03510    0.92940    1.000
    C239     C        0.81910    0.18576    0.80828    1.000
    C240     C        0.92325    0.16610    0.95168    1.000
    C241     C        0.91921    0.30430    0.07340    1.000
    C242     C        0.88440    0.35410    0.09653    1.000
    C243     C        0.84348    0.33100    0.12133    1.000
    H91      H        0.83820    0.28310    0.12500    1.000
    C244     C        0.80988    0.37710    0.14104    1.000
    C245     C        0.81869    0.44730    0.13655    1.000
    H92      H        0.79550    0.47900    0.14930    1.000
    C246     C        0.86145    0.47200    0.11337    1.000
    C247     C        0.89378    0.42420    0.09320    1.000
    H93      H        0.92260    0.43980    0.07700    1.000
    C248     C        0.87261    0.54670    0.10988    1.000
    C249     C        0.89974    0.57290    0.07242    1.000
    H94      H        0.90860    0.54320    0.04770    1.000
    C250     C        0.91408    0.64150    0.07064    1.000
    C251     C        0.89912    0.68550    0.10580    1.000
    H95      H        0.90940    0.73210    0.10520    1.000
    C252     C        0.86941    0.66210    0.14171    1.000
    C253     C        0.85667    0.59270    0.14408    1.000
    H96      H        0.83700    0.57660    0.16920    1.000
    C254     C        0.84904    0.71100    0.17721    1.000
    C255     C        0.94416    0.66670    0.02990    1.000
    C256     C        0.76557    0.35130    0.16779    1.000
