# CIF file generated by openbabel 3.1.0, see https://openbabel.org
data_I
_chemical_name_common 'ja407778a_si_003_clean'
_cell_length_a 9.533
_cell_length_b 10.2037
_cell_length_c 10.2037
_cell_angle_alpha 109.865
_cell_angle_beta 110.118
_cell_angle_gamma 69.8818
_space_group_name_H-M_alt 'P 1'
_space_group_name_Hall 'P 1'
loop_
    _symmetry_equiv_pos_as_xyz
    x,y,z
loop_
    _atom_site_label
    _atom_site_type_symbol
    _atom_site_fract_x
    _atom_site_fract_y
    _atom_site_fract_z
    _atom_site_occupancy
    Mg1      Mg       0.00000    0.00000    0.00000    1.000
    Mg2      Mg       0.50000    0.00000    0.00000    1.000
    H1       H        0.14790    0.65790    0.90530    1.000
    H2       H        0.13820    0.87020    0.32940    1.000
    H3       H        0.36180    0.32940    0.87020    1.000
    H4       H        0.85210    0.34210    0.09470    1.000
    H5       H        0.63820    0.67060    0.12980    1.000
    H6       H        0.35210    0.90530    0.65790    1.000
    H7       H        0.64790    0.09470    0.34210    1.000
    H8       H        0.86180    0.12980    0.67060    1.000
    C1       C        0.58270    0.60171    0.07809    1.000
    C2       C        0.65550    0.19586    0.95594    1.000
    C3       C        0.07680    0.02036    0.64624    1.000
    C4       C        0.34130    0.54196    0.94024    1.000
    C5       C        0.92320    0.97964    0.35376    1.000
    C6       C        0.42320    0.64624    0.02036    1.000
    C7       C        0.65870    0.45804    0.05976    1.000
    C8       C        0.41730    0.39829    0.92191    1.000
    C9       C        0.84130    0.05976    0.45804    1.000
    C10      C        0.57680    0.35376    0.97964    1.000
    C11      C        0.15870    0.94024    0.54196    1.000
    C12      C        0.15550    0.04406    0.80414    1.000
    C13      C        0.34450    0.80414    0.04406    1.000
    C14      C        0.84450    0.95594    0.19586    1.000
    C15      C        0.91730    0.07809    0.60171    1.000
    C16      C        0.08270    0.92191    0.39829    1.000
    O1       O        0.18770    0.57240    0.87440    1.000
    O2       O        0.80180    0.16319    0.98441    1.000
    O3       O        0.81230    0.42760    0.12560    1.000
    O4       O        0.92380    0.90780    0.10732    1.000
    O5       O        0.31230    0.87440    0.57240    1.000
    O6       O        0.68770    0.12560    0.42760    1.000
    O7       O        0.30180    0.01559    0.83681    1.000
    O8       O        0.19820    0.83681    0.01559    1.000
    O9       O        0.57620    0.10732    0.90780    1.000
    O10      O        0.07620    0.09220    0.89268    1.000
    O11      O        0.69820    0.98441    0.16319    1.000
    O12      O        0.42380    0.89268    0.09220    1.000
