# CIF file generated by openbabel 3.1.0, see https://openbabel.org
data_I
_chemical_name_common 'image0'
_cell_length_a 9.6256
_cell_length_b 23.436
_cell_length_c 41.593
_cell_angle_alpha 90
_cell_angle_beta 90
_cell_angle_gamma 90
_space_group_name_H-M_alt 'P 1'
_space_group_name_Hall 'P 1'
loop_
    _symmetry_equiv_pos_as_xyz
    x,y,z
loop_
    _atom_site_label
    _atom_site_type_symbol
    _atom_site_fract_x
    _atom_site_fract_y
    _atom_site_fract_z
    _atom_site_occupancy
    Zn1      Zn       0.79659    0.50188    0.91714    1.000
    Zn2      Zn       0.70094    0.37572    0.03945    1.000
    Zn3      Zn       0.79692    0.37473    0.79179    1.000
    N1       N        0.74970    0.44120    0.94650    1.000
    N2       N        0.71420    0.39250    0.99328    1.000
    N3       N        0.75430    0.47810    0.87299    1.000
    N4       N        0.75480    0.42990    0.82595    1.000
    N5       N        0.67940    0.56630    0.92830    1.000
    N6       N        0.48680    0.61290    0.94460    1.000
    N7       N        0.81770    0.42760    0.06370    1.000
    N8       N        0.01080    0.47340    0.08070    1.000
    N9       N        0.67320    0.39450    0.75680    1.000
    N10      N        0.48290    0.39050    0.72360    1.000
    N11      N        0.75700    0.29680    0.04830    1.000
    N12      N        0.77440    0.29650    0.80850    1.000
    C1       C        0.75910    0.44210    0.97950    1.000
    H1       H        0.79250    0.47310    0.99110    1.000
    C2       C        0.67180    0.35810    0.96790    1.000
    H2       H        0.63680    0.32130    0.96960    1.000
    C3       C        0.69060    0.38830    0.93920    1.000
    H3       H        0.66770    0.37540    0.91870    1.000
    C4       C        0.81250    0.43330    0.85600    1.000
    H4       H        0.88090    0.40900    0.86390    1.000
    C5       C        0.65610    0.47320    0.82350    1.000
    H5       H        0.59750    0.47980    0.80610    1.000
    C6       C        0.66150    0.50490    0.85200    1.000
    H6       H        0.61180    0.53810    0.85620    1.000
    C7       C        0.55280    0.56130    0.94330    1.000
    H7       H        0.51690    0.52740    0.95140    1.000
    C8       C        0.56920    0.65230    0.92810    1.000
    H8       H        0.54810    0.69040    0.92410    1.000
    C9       C        0.68920    0.62340    0.91850    1.000
    H9       H        0.76360    0.63940    0.90740    1.000
    C10      C        0.95480    0.43810    0.05770    1.000
    H10      H        0.00390    0.42330    0.04030    1.000
    C11      C        0.90870    0.48130    0.10380    1.000
    H11      H        0.91850    0.50110    0.12310    1.000
    C12      C        0.78810    0.45380    0.09290    1.000
    H12      H        0.70280    0.45330    0.10340    1.000
    C13      C        0.53840    0.36340    0.74970    1.000
    H13      H        0.50150    0.33240    0.76070    1.000
    C14      C        0.56980    0.43530    0.71450    1.000
    H14      H        0.55240    0.46050    0.69770    1.000
    C15      C        0.68560    0.43680    0.73410    1.000
    H15      H        0.75940    0.46210    0.73230    1.000
    C16      C        0.85330    0.27890    0.06970    1.000
    H16      H        0.90980    0.30230    0.08220    1.000
    C17      C        0.73270    0.27890    0.83870    1.000
    H17      H        0.70900    0.30240    0.85590    1.000
    Zn4      Zn       0.70341    0.49812    0.41714    1.000
    Zn5      Zn       0.79906    0.62428    0.53945    1.000
    Zn6      Zn       0.70308    0.62527    0.29179    1.000
    N13      N        0.75030    0.55880    0.44650    1.000
    N14      N        0.78580    0.60750    0.49328    1.000
    N15      N        0.74570    0.52190    0.37299    1.000
    N16      N        0.74520    0.57010    0.32595    1.000
    N17      N        0.82060    0.43370    0.42830    1.000
    N18      N        0.01320    0.38710    0.44460    1.000
    N19      N        0.68230    0.57240    0.56370    1.000
    N20      N        0.48920    0.52660    0.58070    1.000
    N21      N        0.82680    0.60550    0.25680    1.000
    N22      N        0.01710    0.60950    0.22360    1.000
    N23      N        0.74300    0.70320    0.54830    1.000
    N24      N        0.72560    0.70350    0.30850    1.000
    C18      C        0.74090    0.55790    0.47950    1.000
    H18      H        0.70750    0.52690    0.49110    1.000
    C19      C        0.82820    0.64190    0.46790    1.000
    H19      H        0.86320    0.67870    0.46960    1.000
    C20      C        0.80940    0.61170    0.43920    1.000
    H20      H        0.83230    0.62460    0.41870    1.000
    C21      C        0.68750    0.56670    0.35600    1.000
    H21      H        0.61910    0.59100    0.36390    1.000
    C22      C        0.84390    0.52680    0.32350    1.000
    H22      H        0.90250    0.52020    0.30610    1.000
    C23      C        0.83850    0.49510    0.35200    1.000
    H23      H        0.88820    0.46190    0.35620    1.000
    C24      C        0.94720    0.43870    0.44330    1.000
    H24      H        0.98310    0.47260    0.45140    1.000
    C25      C        0.93080    0.34770    0.42810    1.000
    H25      H        0.95190    0.30960    0.42410    1.000
    C26      C        0.81080    0.37660    0.41850    1.000
    H26      H        0.73640    0.36060    0.40740    1.000
    C27      C        0.54520    0.56190    0.55770    1.000
    H27      H        0.49610    0.57670    0.54030    1.000
    C28      C        0.59130    0.51870    0.60380    1.000
    H28      H        0.58150    0.49890    0.62310    1.000
    C29      C        0.71190    0.54620    0.59290    1.000
    H29      H        0.79720    0.54670    0.60340    1.000
    C30      C        0.96160    0.63660    0.24970    1.000
    H30      H        0.99850    0.66760    0.26070    1.000
    C31      C        0.93020    0.56470    0.21450    1.000
    H31      H        0.94760    0.53950    0.19770    1.000
    C32      C        0.81440    0.56320    0.23410    1.000
    H32      H        0.74060    0.53790    0.23230    1.000
    C33      C        0.64670    0.72110    0.56970    1.000
    H33      H        0.59020    0.69770    0.58220    1.000
    C34      C        0.76730    0.72110    0.33870    1.000
    H34      H        0.79100    0.69760    0.35590    1.000
    Zn7      Zn       0.20341    0.00188    0.08286    1.000
    Zn8      Zn       0.29906    0.87572    0.96055    1.000
    Zn9      Zn       0.20308    0.87473    0.20821    1.000
    N25      N        0.25030    0.94120    0.05350    1.000
    N26      N        0.28580    0.89250    0.00672    1.000
    N27      N        0.24570    0.97810    0.12701    1.000
    N28      N        0.24520    0.92990    0.17405    1.000
    N29      N        0.32060    0.06630    0.07170    1.000
    N30      N        0.51320    0.11290    0.05540    1.000
    N31      N        0.18230    0.92760    0.93630    1.000
    N32      N        0.98920    0.97340    0.91930    1.000
    N33      N        0.32680    0.89450    0.24320    1.000
    N34      N        0.51710    0.89050    0.27640    1.000
    N35      N        0.24300    0.79680    0.95170    1.000
    N36      N        0.22560    0.79650    0.19150    1.000
    C35      C        0.24090    0.94210    0.02050    1.000
    H35      H        0.20750    0.97310    0.00890    1.000
    C36      C        0.32820    0.85810    0.03210    1.000
    H36      H        0.36320    0.82130    0.03040    1.000
    C37      C        0.30940    0.88830    0.06080    1.000
    H37      H        0.33230    0.87540    0.08130    1.000
    C38      C        0.18750    0.93330    0.14400    1.000
    H38      H        0.11910    0.90900    0.13610    1.000
    C39      C        0.34390    0.97320    0.17650    1.000
    H39      H        0.40250    0.97980    0.19390    1.000
    C40      C        0.33850    0.00490    0.14800    1.000
    H40      H        0.38820    0.03810    0.14380    1.000
    C41      C        0.44720    0.06130    0.05670    1.000
    H41      H        0.48310    0.02740    0.04860    1.000
    C42      C        0.43080    0.15230    0.07190    1.000
    H42      H        0.45190    0.19040    0.07590    1.000
    C43      C        0.31080    0.12340    0.08150    1.000
    H43      H        0.23640    0.13940    0.09260    1.000
    C44      C        0.04520    0.93810    0.94230    1.000
    H44      H        0.99610    0.92330    0.95970    1.000
    C45      C        0.09130    0.98130    0.89620    1.000
    H45      H        0.08150    0.00110    0.87690    1.000
    C46      C        0.21190    0.95380    0.90710    1.000
    H46      H        0.29720    0.95330    0.89660    1.000
    C47      C        0.46160    0.86340    0.25030    1.000
    H47      H        0.49850    0.83240    0.23930    1.000
    C48      C        0.43020    0.93530    0.28550    1.000
    H48      H        0.44760    0.96050    0.30230    1.000
    C49      C        0.31440    0.93680    0.26590    1.000
    H49      H        0.24060    0.96210    0.26770    1.000
    C50      C        0.14670    0.77890    0.93030    1.000
    H50      H        0.09020    0.80230    0.91780    1.000
    C51      C        0.26730    0.77890    0.16130    1.000
    H51      H        0.29100    0.80240    0.14410    1.000
    Zn10     Zn       0.29659    0.99812    0.58286    1.000
    Zn11     Zn       0.20094    0.12428    0.46055    1.000
    Zn12     Zn       0.29692    0.12527    0.70821    1.000
    N37      N        0.24970    0.05880    0.55350    1.000
    N38      N        0.21420    0.10750    0.50672    1.000
    N39      N        0.25430    0.02190    0.62701    1.000
    N40      N        0.25480    0.07010    0.67405    1.000
    N41      N        0.17940    0.93370    0.57170    1.000
    N42      N        0.98680    0.88710    0.55540    1.000
    N43      N        0.31770    0.07240    0.43630    1.000
    N44      N        0.51080    0.02660    0.41930    1.000
    N45      N        0.17320    0.10550    0.74320    1.000
    N46      N        0.98290    0.10950    0.77640    1.000
    N47      N        0.25700    0.20320    0.45170    1.000
    N48      N        0.27440    0.20350    0.69150    1.000
    C52      C        0.25910    0.05790    0.52050    1.000
    H52      H        0.29250    0.02690    0.50890    1.000
    C53      C        0.17180    0.14190    0.53210    1.000
    H53      H        0.13680    0.17870    0.53040    1.000
    C54      C        0.19060    0.11170    0.56080    1.000
    H54      H        0.16770    0.12460    0.58130    1.000
    C55      C        0.31250    0.06670    0.64400    1.000
    H55      H        0.38090    0.09100    0.63610    1.000
    C56      C        0.15610    0.02680    0.67650    1.000
    H56      H        0.09750    0.02020    0.69390    1.000
    C57      C        0.16150    0.99510    0.64800    1.000
    H57      H        0.11180    0.96190    0.64380    1.000
    C58      C        0.05280    0.93870    0.55670    1.000
    H58      H        0.01690    0.97260    0.54860    1.000
    C59      C        0.06920    0.84770    0.57190    1.000
    H59      H        0.04810    0.80960    0.57590    1.000
    C60      C        0.18920    0.87660    0.58150    1.000
    H60      H        0.26360    0.86060    0.59260    1.000
    C61      C        0.45480    0.06190    0.44230    1.000
    H61      H        0.50390    0.07670    0.45970    1.000
    C62      C        0.40870    0.01870    0.39620    1.000
    H62      H        0.41850    0.99890    0.37690    1.000
    C63      C        0.28810    0.04620    0.40710    1.000
    H63      H        0.20280    0.04670    0.39660    1.000
    C64      C        0.03840    0.13660    0.75030    1.000
    H64      H        0.00150    0.16760    0.73930    1.000
    C65      C        0.06980    0.06470    0.78550    1.000
    H65      H        0.05240    0.03950    0.80230    1.000
    C66      C        0.18560    0.06320    0.76590    1.000
    H66      H        0.25940    0.03790    0.76770    1.000
    C67      C        0.35330    0.22110    0.43030    1.000
    H67      H        0.40980    0.19770    0.41780    1.000
    C68      C        0.23270    0.22110    0.66130    1.000
    H68      H        0.20900    0.19760    0.64410    1.000
    Zn13     Zn       0.20341    0.49812    0.08286    1.000
    Zn14     Zn       0.29906    0.62428    0.96055    1.000
    Zn15     Zn       0.20308    0.62527    0.20821    1.000
    N49      N        0.25030    0.55880    0.05350    1.000
    N50      N        0.28580    0.60750    0.00672    1.000
    N51      N        0.24570    0.52190    0.12701    1.000
    N52      N        0.24520    0.57010    0.17405    1.000
    N53      N        0.32060    0.43370    0.07170    1.000
    N54      N        0.51320    0.38710    0.05540    1.000
    N55      N        0.18230    0.57240    0.93630    1.000
    N56      N        0.98920    0.52660    0.91930    1.000
    N57      N        0.32680    0.60550    0.24320    1.000
    N58      N        0.51710    0.60950    0.27640    1.000
    N59      N        0.24300    0.70320    0.95170    1.000
    N60      N        0.22560    0.70350    0.19150    1.000
    C69      C        0.24090    0.55790    0.02050    1.000
    H69      H        0.20750    0.52690    0.00890    1.000
    C70      C        0.32820    0.64190    0.03210    1.000
    H70      H        0.36320    0.67870    0.03040    1.000
    C71      C        0.30940    0.61170    0.06080    1.000
    H71      H        0.33230    0.62460    0.08130    1.000
    C72      C        0.18750    0.56670    0.14400    1.000
    H72      H        0.11910    0.59100    0.13610    1.000
    C73      C        0.34390    0.52680    0.17650    1.000
    H73      H        0.40250    0.52020    0.19390    1.000
    C74      C        0.33850    0.49510    0.14800    1.000
    H74      H        0.38820    0.46190    0.14380    1.000
    C75      C        0.44720    0.43870    0.05670    1.000
    H75      H        0.48310    0.47260    0.04860    1.000
    C76      C        0.43080    0.34770    0.07190    1.000
    H76      H        0.45190    0.30960    0.07590    1.000
    C77      C        0.31080    0.37660    0.08150    1.000
    H77      H        0.23640    0.36060    0.09260    1.000
    C78      C        0.04520    0.56190    0.94230    1.000
    H78      H        0.99610    0.57670    0.95970    1.000
    C79      C        0.09130    0.51870    0.89620    1.000
    H79      H        0.08150    0.49890    0.87690    1.000
    C80      C        0.21190    0.54620    0.90710    1.000
    H80      H        0.29720    0.54670    0.89660    1.000
    C81      C        0.46160    0.63660    0.25030    1.000
    H81      H        0.49850    0.66760    0.23930    1.000
    C82      C        0.43020    0.56470    0.28550    1.000
    H82      H        0.44760    0.53950    0.30230    1.000
    C83      C        0.31440    0.56320    0.26590    1.000
    H83      H        0.24060    0.53790    0.26770    1.000
    C84      C        0.14670    0.72110    0.93030    1.000
    H84      H        0.09020    0.69770    0.91780    1.000
    C85      C        0.26730    0.72110    0.16130    1.000
    H85      H        0.29100    0.69760    0.14410    1.000
    Zn16     Zn       0.29659    0.50188    0.58286    1.000
    Zn17     Zn       0.20094    0.37572    0.46055    1.000
    Zn18     Zn       0.29692    0.37473    0.70821    1.000
    N61      N        0.24970    0.44120    0.55350    1.000
    N62      N        0.21420    0.39250    0.50672    1.000
    N63      N        0.25430    0.47810    0.62701    1.000
    N64      N        0.25480    0.42990    0.67405    1.000
    N65      N        0.17940    0.56630    0.57170    1.000
    N66      N        0.98680    0.61290    0.55540    1.000
    N67      N        0.31770    0.42760    0.43630    1.000
    N68      N        0.51080    0.47340    0.41930    1.000
    N69      N        0.17320    0.39450    0.74320    1.000
    N70      N        0.98290    0.39050    0.77640    1.000
    N71      N        0.25700    0.29680    0.45170    1.000
    N72      N        0.27440    0.29650    0.69150    1.000
    C86      C        0.25910    0.44210    0.52050    1.000
    H86      H        0.29250    0.47310    0.50890    1.000
    C87      C        0.17180    0.35810    0.53210    1.000
    H87      H        0.13680    0.32130    0.53040    1.000
    C88      C        0.19060    0.38830    0.56080    1.000
    H88      H        0.16770    0.37540    0.58130    1.000
    C89      C        0.31250    0.43330    0.64400    1.000
    H89      H        0.38090    0.40900    0.63610    1.000
    C90      C        0.15610    0.47320    0.67650    1.000
    H90      H        0.09750    0.47980    0.69390    1.000
    C91      C        0.16150    0.50490    0.64800    1.000
    H91      H        0.11180    0.53810    0.64380    1.000
    C92      C        0.05280    0.56130    0.55670    1.000
    H92      H        0.01690    0.52740    0.54860    1.000
    C93      C        0.06920    0.65230    0.57190    1.000
    H93      H        0.04810    0.69040    0.57590    1.000
    C94      C        0.18920    0.62340    0.58150    1.000
    H94      H        0.26360    0.63940    0.59260    1.000
    C95      C        0.45480    0.43810    0.44230    1.000
    H95      H        0.50390    0.42330    0.45970    1.000
    C96      C        0.40870    0.48130    0.39620    1.000
    H96      H        0.41850    0.50110    0.37690    1.000
    C97      C        0.28810    0.45380    0.40710    1.000
    H97      H        0.20280    0.45330    0.39660    1.000
    C98      C        0.03840    0.36340    0.75030    1.000
    H98      H        0.00150    0.33240    0.73930    1.000
    C99      C        0.06980    0.43530    0.78550    1.000
    H99      H        0.05240    0.46050    0.80230    1.000
    C100     C        0.18560    0.43680    0.76590    1.000
    H100     H        0.25940    0.46210    0.76770    1.000
    C101     C        0.35330    0.27890    0.43030    1.000
    H101     H        0.40980    0.30230    0.41780    1.000
    C102     C        0.23270    0.27890    0.66130    1.000
    H102     H        0.20900    0.30240    0.64410    1.000
    Zn19     Zn       0.79659    0.99812    0.91714    1.000
    Zn20     Zn       0.70094    0.12428    0.03945    1.000
    Zn21     Zn       0.79692    0.12527    0.79179    1.000
    N73      N        0.74970    0.05880    0.94650    1.000
    N74      N        0.71420    0.10750    0.99328    1.000
    N75      N        0.75430    0.02190    0.87299    1.000
    N76      N        0.75480    0.07010    0.82595    1.000
    N77      N        0.67940    0.93370    0.92830    1.000
    N78      N        0.48680    0.88710    0.94460    1.000
    N79      N        0.81770    0.07240    0.06370    1.000
    N80      N        0.01080    0.02660    0.08070    1.000
    N81      N        0.67320    0.10550    0.75680    1.000
    N82      N        0.48290    0.10950    0.72360    1.000
    N83      N        0.75700    0.20320    0.04830    1.000
    N84      N        0.77440    0.20350    0.80850    1.000
    C103     C        0.75910    0.05790    0.97950    1.000
    H103     H        0.79250    0.02690    0.99110    1.000
    C104     C        0.67180    0.14190    0.96790    1.000
    H104     H        0.63680    0.17870    0.96960    1.000
    C105     C        0.69060    0.11170    0.93920    1.000
    H105     H        0.66770    0.12460    0.91870    1.000
    C106     C        0.81250    0.06670    0.85600    1.000
    H106     H        0.88090    0.09100    0.86390    1.000
    C107     C        0.65610    0.02680    0.82350    1.000
    H107     H        0.59750    0.02020    0.80610    1.000
    C108     C        0.66150    0.99510    0.85200    1.000
    H108     H        0.61180    0.96190    0.85620    1.000
    C109     C        0.55280    0.93870    0.94330    1.000
    H109     H        0.51690    0.97260    0.95140    1.000
    C110     C        0.56920    0.84770    0.92810    1.000
    H110     H        0.54810    0.80960    0.92410    1.000
    C111     C        0.68920    0.87660    0.91850    1.000
    H111     H        0.76360    0.86060    0.90740    1.000
    C112     C        0.95480    0.06190    0.05770    1.000
    H112     H        0.00390    0.07670    0.04030    1.000
    C113     C        0.90870    0.01870    0.10380    1.000
    H113     H        0.91850    0.99890    0.12310    1.000
    C114     C        0.78810    0.04620    0.09290    1.000
    H114     H        0.70280    0.04670    0.10340    1.000
    C115     C        0.53840    0.13660    0.74970    1.000
    H115     H        0.50150    0.16760    0.76070    1.000
    C116     C        0.56980    0.06470    0.71450    1.000
    H116     H        0.55240    0.03950    0.69770    1.000
    C117     C        0.68560    0.06320    0.73410    1.000
    H117     H        0.75940    0.03790    0.73230    1.000
    C118     C        0.85330    0.22110    0.06970    1.000
    H118     H        0.90980    0.19770    0.08220    1.000
    C119     C        0.73270    0.22110    0.83870    1.000
    H119     H        0.70900    0.19760    0.85590    1.000
    Zn22     Zn       0.70341    0.00188    0.41714    1.000
    Zn23     Zn       0.79906    0.87572    0.53945    1.000
    Zn24     Zn       0.70308    0.87473    0.29179    1.000
    N85      N        0.75030    0.94120    0.44650    1.000
    N86      N        0.78580    0.89250    0.49328    1.000
    N87      N        0.74570    0.97810    0.37299    1.000
    N88      N        0.74520    0.92990    0.32595    1.000
    N89      N        0.82060    0.06630    0.42830    1.000
    N90      N        0.01320    0.11290    0.44460    1.000
    N91      N        0.68230    0.92760    0.56370    1.000
    N92      N        0.48920    0.97340    0.58070    1.000
    N93      N        0.82680    0.89450    0.25680    1.000
    N94      N        0.01710    0.89050    0.22360    1.000
    N95      N        0.74300    0.79680    0.54830    1.000
    N96      N        0.72560    0.79650    0.30850    1.000
    C120     C        0.74090    0.94210    0.47950    1.000
    H120     H        0.70750    0.97310    0.49110    1.000
    C121     C        0.82820    0.85810    0.46790    1.000
    H121     H        0.86320    0.82130    0.46960    1.000
    C122     C        0.80940    0.88830    0.43920    1.000
    H122     H        0.83230    0.87540    0.41870    1.000
    C123     C        0.68750    0.93330    0.35600    1.000
    H123     H        0.61910    0.90900    0.36390    1.000
    C124     C        0.84390    0.97320    0.32350    1.000
    H124     H        0.90250    0.97980    0.30610    1.000
    C125     C        0.83850    0.00490    0.35200    1.000
    H125     H        0.88820    0.03810    0.35620    1.000
    C126     C        0.94720    0.06130    0.44330    1.000
    H126     H        0.98310    0.02740    0.45140    1.000
    C127     C        0.93080    0.15230    0.42810    1.000
    H127     H        0.95190    0.19040    0.42410    1.000
    C128     C        0.81080    0.12340    0.41850    1.000
    H128     H        0.73640    0.13940    0.40740    1.000
    C129     C        0.54520    0.93810    0.55770    1.000
    H129     H        0.49610    0.92330    0.54030    1.000
    C130     C        0.59130    0.98130    0.60380    1.000
    H130     H        0.58150    0.00110    0.62310    1.000
    C131     C        0.71190    0.95380    0.59290    1.000
    H131     H        0.79720    0.95330    0.60340    1.000
    C132     C        0.96160    0.86340    0.24970    1.000
    H132     H        0.99850    0.83240    0.26070    1.000
    C133     C        0.93020    0.93530    0.21450    1.000
    H133     H        0.94760    0.96050    0.19770    1.000
    C134     C        0.81440    0.93680    0.23410    1.000
    H134     H        0.74060    0.96210    0.23230    1.000
    C135     C        0.64670    0.77890    0.56970    1.000
    H135     H        0.59020    0.80230    0.58220    1.000
    C136     C        0.76730    0.77890    0.33870    1.000
    H136     H        0.79100    0.80240    0.35590    1.000
    C137     C        0.70390    0.25000    0.03600    1.000
    H137     H        0.63580    0.25000    0.02010    1.000
    C138     C        0.79900    0.25000    0.78950    1.000
    H138     H        0.82670    0.25000    0.76810    1.000
    C139     C        0.79610    0.75000    0.53600    1.000
    H139     H        0.86420    0.75000    0.52010    1.000
    C140     C        0.70100    0.75000    0.28950    1.000
    H140     H        0.67330    0.75000    0.26810    1.000
    C141     C        0.29610    0.75000    0.96400    1.000
    H141     H        0.36420    0.75000    0.97990    1.000
    C142     C        0.20100    0.75000    0.21050    1.000
    H142     H        0.17330    0.75000    0.23190    1.000
    C143     C        0.20390    0.25000    0.46400    1.000
    H143     H        0.13580    0.25000    0.47990    1.000
    C144     C        0.29900    0.25000    0.71050    1.000
    H144     H        0.32670    0.25000    0.73190    1.000
