# CIF file generated by openbabel 3.1.0, see https://openbabel.org
data_I
_chemical_name_common 'ja406030p_si_005_clean'
_cell_length_a 19.277
_cell_length_b 19.277
_cell_length_c 36.023
_cell_angle_alpha 90
_cell_angle_beta 90
_cell_angle_gamma 120
_space_group_name_H-M_alt 'P 1'
_space_group_name_Hall 'P 1'
loop_
    _symmetry_equiv_pos_as_xyz
    x,y,z
loop_
    _atom_site_label
    _atom_site_type_symbol
    _atom_site_fract_x
    _atom_site_fract_y
    _atom_site_fract_z
    _atom_site_occupancy
    H1       H        0.14130    0.67390    0.15230    1.000
    H2       H        0.89730    0.30830    0.40810    1.000
    H3       H        0.55580    0.64430    0.09340    1.000
    C4       C        0.84630    0.56900    0.04049    1.000
    C5       C        0.14380    0.41020    0.57820    1.000
    C6       C        0.50750    0.60830    0.10529    1.000
    C7       C        0.86860    0.37380    0.85927    1.000
    C8       C        0.09806    0.45550    0.52340    1.000
    O9       O        0.40659    0.96127    0.95763    1.000
    O10      O        0.20201    0.54310    0.28991    1.000
    O11      O        0.11339    0.62986    0.49136    1.000
    H12      H        0.32610    0.46740    0.15230    1.000
    H13      H        0.69170    0.58900    0.40810    1.000
    H14      H        0.35570    0.91150    0.09340    1.000
    C15      C        0.43100    0.27730    0.04049    1.000
    C16      C        0.58980    0.73360    0.57820    1.000
    C17      C        0.39170    0.89920    0.10529    1.000
    C18      C        0.62620    0.49480    0.85927    1.000
    C19      C        0.54450    0.64256    0.52340    1.000
    O20      O        0.03873    0.44532    0.95763    1.000
    O21      O        0.45690    0.65891    0.28991    1.000
    O22      O        0.37014    0.48353    0.49136    1.000
    H23      H        0.53260    0.85870    0.15230    1.000
    H24      H        0.41100    0.10270    0.40810    1.000
    H25      H        0.08850    0.44420    0.09340    1.000
    C26      C        0.72270    0.15370    0.04049    1.000
    C27      C        0.26640    0.85620    0.57820    1.000
    C28      C        0.10080    0.49250    0.10529    1.000
    C29      C        0.50520    0.13140    0.85927    1.000
    C30      C        0.35744    0.90194    0.52340    1.000
    O31      O        0.55468    0.59341    0.95763    1.000
    O32      O        0.34109    0.79799    0.28991    1.000
    O33      O        0.51647    0.88661    0.49136    1.000
    H34      H        0.85870    0.32610    0.65230    1.000
    H35      H        0.10270    0.69170    0.90810    1.000
    H36      H        0.44420    0.35570    0.59340    1.000
    C37      C        0.15370    0.43100    0.54049    1.000
    C38      C        0.85620    0.58980    0.07820    1.000
    C39      C        0.49250    0.39170    0.60529    1.000
    C40      C        0.13140    0.62620    0.35927    1.000
    C41      C        0.90194    0.54450    0.02340    1.000
    O42      O        0.59341    0.03873    0.45763    1.000
    O43      O        0.79799    0.45690    0.78991    1.000
    O44      O        0.88661    0.37014    0.99136    1.000
    H45      H        0.67390    0.53260    0.65230    1.000
    H46      H        0.30830    0.41100    0.90810    1.000
    H47      H        0.64430    0.08850    0.59340    1.000
    C48      C        0.56900    0.72270    0.54049    1.000
    C49      C        0.41020    0.26640    0.07820    1.000
    C50      C        0.60830    0.10080    0.60529    1.000
    C51      C        0.37380    0.50520    0.35927    1.000
    C52      C        0.45550    0.35744    0.02340    1.000
    O53      O        0.96127    0.55468    0.45763    1.000
    O54      O        0.54310    0.34109    0.78991    1.000
    O55      O        0.62986    0.51647    0.99136    1.000
    H56      H        0.46740    0.14130    0.65230    1.000
    H57      H        0.58900    0.89730    0.90810    1.000
    H58      H        0.91150    0.55580    0.59340    1.000
    C59      C        0.27730    0.84630    0.54049    1.000
    C60      C        0.73360    0.14380    0.07820    1.000
    C61      C        0.89920    0.50750    0.60529    1.000
    C62      C        0.49480    0.86860    0.35927    1.000
    C63      C        0.64256    0.09806    0.02340    1.000
    O64      O        0.44532    0.40659    0.45763    1.000
    O65      O        0.65891    0.20201    0.78991    1.000
    O66      O        0.48353    0.11339    0.99136    1.000
    H67      H        0.67390    0.14130    0.84770    1.000
    H68      H        0.30830    0.89730    0.59190    1.000
    H69      H        0.64430    0.55580    0.90660    1.000
    C70      C        0.56900    0.84630    0.95951    1.000
    C71      C        0.41020    0.14380    0.42180    1.000
    C72      C        0.60830    0.50750    0.89471    1.000
    C73      C        0.37380    0.86860    0.14073    1.000
    C74      C        0.45550    0.09806    0.47660    1.000
    O75      O        0.96127    0.40659    0.04237    1.000
    O76      O        0.54310    0.20201    0.71009    1.000
    O77      O        0.62986    0.11339    0.50864    1.000
    H78      H        0.46740    0.32610    0.84770    1.000
    H79      H        0.58900    0.69170    0.59190    1.000
    H80      H        0.91150    0.35570    0.90660    1.000
    C81      C        0.27730    0.43100    0.95951    1.000
    C82      C        0.73360    0.58980    0.42180    1.000
    C83      C        0.89920    0.39170    0.89471    1.000
    C84      C        0.49480    0.62620    0.14073    1.000
    C85      C        0.64256    0.54450    0.47660    1.000
    O86      O        0.44532    0.03873    0.04237    1.000
    O87      O        0.65891    0.45690    0.71009    1.000
    O88      O        0.48353    0.37014    0.50864    1.000
    H89      H        0.85870    0.53260    0.84770    1.000
    H90      H        0.10270    0.41100    0.59190    1.000
    H91      H        0.44420    0.08850    0.90660    1.000
    C92      C        0.15370    0.72270    0.95951    1.000
    C93      C        0.85620    0.26640    0.42180    1.000
    C94      C        0.49250    0.10080    0.89471    1.000
    C95      C        0.13140    0.50520    0.14073    1.000
    C96      C        0.90194    0.35744    0.47660    1.000
    O97      O        0.59341    0.55468    0.04237    1.000
    O98      O        0.79799    0.34109    0.71009    1.000
    O99      O        0.88661    0.51647    0.50864    1.000
    H100     H        0.32610    0.85870    0.34770    1.000
    H101     H        0.69170    0.10270    0.09190    1.000
    H102     H        0.35570    0.44420    0.40660    1.000
    C103     C        0.43100    0.15370    0.45951    1.000
    C104     C        0.58980    0.85620    0.92180    1.000
    C105     C        0.39170    0.49250    0.39471    1.000
    C106     C        0.62620    0.13140    0.64073    1.000
    C107     C        0.54450    0.90194    0.97660    1.000
    O108     O        0.03873    0.59341    0.54237    1.000
    O109     O        0.45690    0.79799    0.21009    1.000
    O110     O        0.37014    0.88661    0.00864    1.000
    H111     H        0.53260    0.67390    0.34770    1.000
    H112     H        0.41100    0.30830    0.09190    1.000
    H113     H        0.08850    0.64430    0.40660    1.000
    C114     C        0.72270    0.56900    0.45951    1.000
    C115     C        0.26640    0.41020    0.92180    1.000
    C116     C        0.10080    0.60830    0.39471    1.000
    C117     C        0.50520    0.37380    0.64073    1.000
    C118     C        0.35744    0.45550    0.97660    1.000
    O119     O        0.55468    0.96127    0.54237    1.000
    O120     O        0.34109    0.54310    0.21009    1.000
    O121     O        0.51647    0.62986    0.00864    1.000
    H122     H        0.14130    0.46740    0.34770    1.000
    H123     H        0.89730    0.58900    0.09190    1.000
    H124     H        0.55580    0.91150    0.40660    1.000
    C125     C        0.84630    0.27730    0.45951    1.000
    C126     C        0.14380    0.73360    0.92180    1.000
    C127     C        0.50750    0.89920    0.39471    1.000
    C128     C        0.86860    0.49480    0.64073    1.000
    C129     C        0.09806    0.64256    0.97660    1.000
    O130     O        0.40659    0.44532    0.54237    1.000
    O131     O        0.20201    0.65891    0.21009    1.000
    O132     O        0.11339    0.48353    0.00864    1.000
    H133     H        0.85870    0.32610    0.84770    1.000
    H134     H        0.10270    0.69170    0.59190    1.000
    H135     H        0.44420    0.35570    0.90660    1.000
    C136     C        0.15370    0.43100    0.95951    1.000
    C137     C        0.85620    0.58980    0.42180    1.000
    C138     C        0.49250    0.39170    0.89471    1.000
    C139     C        0.13140    0.62620    0.14073    1.000
    C140     C        0.90194    0.54450    0.47660    1.000
    O141     O        0.59341    0.03873    0.04237    1.000
    O142     O        0.79799    0.45690    0.71009    1.000
    O143     O        0.88661    0.37014    0.50864    1.000
    H144     H        0.67390    0.53260    0.84770    1.000
    H145     H        0.30830    0.41100    0.59190    1.000
    H146     H        0.64430    0.08850    0.90660    1.000
    C147     C        0.56900    0.72270    0.95951    1.000
    C148     C        0.41020    0.26640    0.42180    1.000
    C149     C        0.60830    0.10080    0.89471    1.000
    C150     C        0.37380    0.50520    0.14073    1.000
    C151     C        0.45550    0.35744    0.47660    1.000
    O152     O        0.96127    0.55468    0.04237    1.000
    O153     O        0.54310    0.34109    0.71009    1.000
    O154     O        0.62986    0.51647    0.50864    1.000
    H155     H        0.46740    0.14130    0.84770    1.000
    H156     H        0.58900    0.89730    0.59190    1.000
    H157     H        0.91150    0.55580    0.90660    1.000
    C158     C        0.27730    0.84630    0.95951    1.000
    C159     C        0.73360    0.14380    0.42180    1.000
    C160     C        0.89920    0.50750    0.89471    1.000
    C161     C        0.49480    0.86860    0.14073    1.000
    C162     C        0.64256    0.09806    0.47660    1.000
    O163     O        0.44532    0.40659    0.04237    1.000
    O164     O        0.65891    0.20201    0.71009    1.000
    O165     O        0.48353    0.11339    0.50864    1.000
    H166     H        0.14130    0.67390    0.34770    1.000
    H167     H        0.89730    0.30830    0.09190    1.000
    H168     H        0.55580    0.64430    0.40660    1.000
    C169     C        0.84630    0.56900    0.45951    1.000
    C170     C        0.14380    0.41020    0.92180    1.000
    C171     C        0.50750    0.60830    0.39471    1.000
    C172     C        0.86860    0.37380    0.64073    1.000
    C173     C        0.09806    0.45550    0.97660    1.000
    O174     O        0.40659    0.96127    0.54237    1.000
    O175     O        0.20201    0.54310    0.21009    1.000
    O176     O        0.11339    0.62986    0.00864    1.000
    H177     H        0.32610    0.46740    0.34770    1.000
    H178     H        0.69170    0.58900    0.09190    1.000
    H179     H        0.35570    0.91150    0.40660    1.000
    C180     C        0.43100    0.27730    0.45951    1.000
    C181     C        0.58980    0.73360    0.92180    1.000
    C182     C        0.39170    0.89920    0.39471    1.000
    C183     C        0.62620    0.49480    0.64073    1.000
    C184     C        0.54450    0.64256    0.97660    1.000
    O185     O        0.03873    0.44532    0.54237    1.000
    O186     O        0.45690    0.65891    0.21009    1.000
    O187     O        0.37014    0.48353    0.00864    1.000
    H188     H        0.53260    0.85870    0.34770    1.000
    H189     H        0.41100    0.10270    0.09190    1.000
    H190     H        0.08850    0.44420    0.40660    1.000
    C191     C        0.72270    0.15370    0.45951    1.000
    C192     C        0.26640    0.85620    0.92180    1.000
    C193     C        0.10080    0.49250    0.39471    1.000
    C194     C        0.50520    0.13140    0.64073    1.000
    C195     C        0.35744    0.90194    0.97660    1.000
    O196     O        0.55468    0.59341    0.54237    1.000
    O197     O        0.34109    0.79799    0.21009    1.000
    O198     O        0.51647    0.88661    0.00864    1.000
    H199     H        0.32610    0.85870    0.15230    1.000
    H200     H        0.69170    0.10270    0.40810    1.000
    H201     H        0.35570    0.44420    0.09340    1.000
    C202     C        0.43100    0.15370    0.04049    1.000
    C203     C        0.58980    0.85620    0.57820    1.000
    C204     C        0.39170    0.49250    0.10529    1.000
    C205     C        0.62620    0.13140    0.85927    1.000
    C206     C        0.54450    0.90194    0.52340    1.000
    O207     O        0.03873    0.59341    0.95763    1.000
    O208     O        0.45690    0.79799    0.28991    1.000
    O209     O        0.37014    0.88661    0.49136    1.000
    H210     H        0.53260    0.67390    0.15230    1.000
    H211     H        0.41100    0.30830    0.40810    1.000
    H212     H        0.08850    0.64430    0.09340    1.000
    C213     C        0.72270    0.56900    0.04049    1.000
    C214     C        0.26640    0.41020    0.57820    1.000
    C215     C        0.10080    0.60830    0.10529    1.000
    C216     C        0.50520    0.37380    0.85927    1.000
    C217     C        0.35744    0.45550    0.52340    1.000
    O218     O        0.55468    0.96127    0.95763    1.000
    O219     O        0.34109    0.54310    0.28991    1.000
    O220     O        0.51647    0.62986    0.49136    1.000
    H221     H        0.14130    0.46740    0.15230    1.000
    H222     H        0.89730    0.58900    0.40810    1.000
    H223     H        0.55580    0.91150    0.09340    1.000
    C224     C        0.84630    0.27730    0.04049    1.000
    C225     C        0.14380    0.73360    0.57820    1.000
    C226     C        0.50750    0.89920    0.10529    1.000
    C227     C        0.86860    0.49480    0.85927    1.000
    C228     C        0.09806    0.64256    0.52340    1.000
    O229     O        0.40659    0.44532    0.95763    1.000
    O230     O        0.20201    0.65891    0.28991    1.000
    O231     O        0.11339    0.48353    0.49136    1.000
    H232     H        0.67390    0.14130    0.65230    1.000
    H233     H        0.30830    0.89730    0.90810    1.000
    H234     H        0.64430    0.55580    0.59340    1.000
    C235     C        0.56900    0.84630    0.54049    1.000
    C236     C        0.41020    0.14380    0.07820    1.000
    C237     C        0.60830    0.50750    0.60529    1.000
    C238     C        0.37380    0.86860    0.35927    1.000
    C239     C        0.45550    0.09806    0.02340    1.000
    O240     O        0.96127    0.40659    0.45763    1.000
    O241     O        0.54310    0.20201    0.78991    1.000
    O242     O        0.62986    0.11339    0.99136    1.000
    H243     H        0.46740    0.32610    0.65230    1.000
    H244     H        0.58900    0.69170    0.90810    1.000
    H245     H        0.91150    0.35570    0.59340    1.000
    C246     C        0.27730    0.43100    0.54049    1.000
    C247     C        0.73360    0.58980    0.07820    1.000
    C248     C        0.89920    0.39170    0.60529    1.000
    C249     C        0.49480    0.62620    0.35927    1.000
    C250     C        0.64256    0.54450    0.02340    1.000
    O251     O        0.44532    0.03873    0.45763    1.000
    O252     O        0.65891    0.45690    0.78991    1.000
    O253     O        0.48353    0.37014    0.99136    1.000
    H254     H        0.85870    0.53260    0.65230    1.000
    H255     H        0.10270    0.41100    0.90810    1.000
    H256     H        0.44420    0.08850    0.59340    1.000
    C257     C        0.15370    0.72270    0.54049    1.000
    C258     C        0.85620    0.26640    0.07820    1.000
    C259     C        0.49250    0.10080    0.60529    1.000
    C260     C        0.13140    0.50520    0.35927    1.000
    C261     C        0.90194    0.35744    0.02340    1.000
    O262     O        0.59341    0.55468    0.45763    1.000
    O263     O        0.79799    0.34109    0.78991    1.000
    O264     O        0.88661    0.51647    0.99136    1.000
    Zn265    Zn       0.52298    0.04595    0.53444    1.000
    N266     N        0.54395    0.08790    0.91287    1.000
    Zn267    Zn       0.95405    0.47702    0.53444    1.000
    N268     N        0.91210    0.45605    0.91287    1.000
    Zn269    Zn       0.52298    0.47702    0.53444    1.000
    N270     N        0.54395    0.45605    0.91287    1.000
    Zn271    Zn       0.47702    0.95405    0.03444    1.000
    N272     N        0.45605    0.91210    0.41287    1.000
    Zn273    Zn       0.04595    0.52298    0.03444    1.000
    N274     N        0.08790    0.54395    0.41287    1.000
    Zn275    Zn       0.47702    0.52298    0.03444    1.000
    N276     N        0.45605    0.54395    0.41287    1.000
    Zn277    Zn       0.04595    0.52298    0.46556    1.000
    N278     N        0.08790    0.54395    0.08713    1.000
    Zn279    Zn       0.47702    0.95405    0.46556    1.000
    N280     N        0.45605    0.91210    0.08713    1.000
    Zn281    Zn       0.47702    0.52298    0.46556    1.000
    N282     N        0.45605    0.54395    0.08713    1.000
    Zn283    Zn       0.95405    0.47702    0.96556    1.000
    N284     N        0.91210    0.45605    0.58713    1.000
    Zn285    Zn       0.52298    0.04595    0.96556    1.000
    N286     N        0.54395    0.08790    0.58713    1.000
    Zn287    Zn       0.52298    0.47702    0.96556    1.000
    N288     N        0.54395    0.45605    0.58713    1.000
    Cr289    Cr       0.27608    0.55216    0.25000    1.000
    Cr290    Cr       0.44784    0.72392    0.25000    1.000
    Cr291    Cr       0.27608    0.72392    0.25000    1.000
    Cr292    Cr       0.72392    0.44784    0.75000    1.000
    Cr293    Cr       0.55216    0.27608    0.75000    1.000
    Cr294    Cr       0.72392    0.27608    0.75000    1.000
    H295     H        0.76145    0.23855    0.49930    1.000
    C296     C        0.19430    0.80570    0.90470    1.000
    C297     C        0.77475    0.22525    0.02371    1.000
    H298     H        0.76145    0.52290    0.49930    1.000
    C299     C        0.19430    0.38860    0.90470    1.000
    C300     C        0.77475    0.54950    0.02371    1.000
    H301     H        0.47710    0.23855    0.49930    1.000
    C302     C        0.61140    0.80570    0.90470    1.000
    C303     C        0.45050    0.22525    0.02371    1.000
    H304     H        0.23855    0.76145    0.99930    1.000
    C305     C        0.80570    0.19430    0.40470    1.000
    C306     C        0.22525    0.77475    0.52371    1.000
    H307     H        0.23855    0.47710    0.99930    1.000
    C308     C        0.80570    0.61140    0.40470    1.000
    C309     C        0.22525    0.45050    0.52371    1.000
    H310     H        0.52290    0.76145    0.99930    1.000
    C311     C        0.38860    0.19430    0.40470    1.000
    C312     C        0.54950    0.77475    0.52371    1.000
    H313     H        0.23855    0.76145    0.50070    1.000
    C314     C        0.80570    0.19430    0.09530    1.000
    C315     C        0.22525    0.77475    0.97629    1.000
    H316     H        0.52290    0.76145    0.50070    1.000
    C317     C        0.38860    0.19430    0.09530    1.000
    C318     C        0.54950    0.77475    0.97629    1.000
    H319     H        0.23855    0.47710    0.50070    1.000
    C320     C        0.80570    0.61140    0.09530    1.000
    C321     C        0.22525    0.45050    0.97629    1.000
    H322     H        0.76145    0.23855    0.00070    1.000
    C323     C        0.19430    0.80570    0.59530    1.000
    C324     C        0.77475    0.22525    0.47629    1.000
    H325     H        0.47710    0.23855    0.00070    1.000
    C326     C        0.61140    0.80570    0.59530    1.000
    C327     C        0.45050    0.22525    0.47629    1.000
    H328     H        0.76145    0.52290    0.00070    1.000
    C329     C        0.19430    0.38860    0.59530    1.000
    C330     C        0.77475    0.54950    0.47629    1.000
    C331     C        0.81270    0.40635    0.80362    1.000
    C332     C        0.59365    0.40635    0.80362    1.000
    C333     C        0.59365    0.18730    0.80362    1.000
    C334     C        0.18730    0.59365    0.30362    1.000
    C335     C        0.40635    0.59365    0.30362    1.000
    C336     C        0.40635    0.81270    0.30362    1.000
    C337     C        0.40635    0.81270    0.19638    1.000
    C338     C        0.40635    0.59365    0.19638    1.000
    C339     C        0.18730    0.59365    0.19638    1.000
    C340     C        0.59365    0.18730    0.69638    1.000
    C341     C        0.59365    0.40635    0.69638    1.000
    C342     C        0.81270    0.40635    0.69638    1.000
    C343     C        0.64540    0.82270    0.63400    1.000
    C344     C        0.14680    0.57340    0.15864    1.000
    C345     C        0.17730    0.82270    0.63400    1.000
    C346     C        0.42660    0.57340    0.15864    1.000
    C347     C        0.17730    0.35460    0.63400    1.000
    C348     C        0.42660    0.85320    0.15864    1.000
    C349     C        0.35460    0.17730    0.13400    1.000
    C350     C        0.85320    0.42660    0.65864    1.000
    C351     C        0.82270    0.17730    0.13400    1.000
    C352     C        0.57340    0.42660    0.65864    1.000
    C353     C        0.82270    0.64540    0.13400    1.000
    C354     C        0.57340    0.14680    0.65864    1.000
    C355     C        0.82270    0.64540    0.36600    1.000
    C356     C        0.57340    0.14680    0.84136    1.000
    C357     C        0.82270    0.17730    0.36600    1.000
    C358     C        0.57340    0.42660    0.84136    1.000
    C359     C        0.35460    0.17730    0.36600    1.000
    C360     C        0.85320    0.42660    0.84136    1.000
    C361     C        0.17730    0.35460    0.86600    1.000
    C362     C        0.42660    0.85320    0.34136    1.000
    C363     C        0.17730    0.82270    0.86600    1.000
    C364     C        0.42660    0.57340    0.34136    1.000
    C365     C        0.64540    0.82270    0.86600    1.000
    C366     C        0.14680    0.57340    0.34136    1.000
    O367     O        0.66667    0.33333    0.75000    1.000
    O368     O        0.33333    0.66667    0.25000    1.000
    H369     H        0.70010    0.88539    0.63507    1.000
    H370     H        0.66366    0.77681    0.64194    1.000
    H371     H        0.59819    0.81877    0.65430    1.000
    H372     H        0.14644    0.76452    0.65054    1.000
    H373     H        0.13660    0.84977    0.63260    1.000
    H374     H        0.23598    0.86668    0.64816    1.000
    H375     H        0.16366    0.28986    0.63317    1.000
    H376     H        0.12353    0.35674    0.64579    1.000
    H377     H        0.23183    0.39145    0.65234    1.000
    H378     H        0.33634    0.11315    0.14194    1.000
    H379     H        0.29990    0.18529    0.13507    1.000
    H380     H        0.40181    0.22058    0.15430    1.000
    H381     H        0.87647    0.23322    0.14579    1.000
    H382     H        0.83634    0.12619    0.13317    1.000
    H383     H        0.76817    0.15962    0.15234    1.000
    H384     H        0.86340    0.71316    0.13260    1.000
    H385     H        0.85356    0.61808    0.15054    1.000
    H386     H        0.76402    0.63071    0.14816    1.000
    H387     H        0.77751    0.66471    0.35825    1.000
    H388     H        0.81765    0.59782    0.34563    1.000
    H389     H        0.88582    0.69942    0.36480    1.000
    H390     H        0.79059    0.19578    0.34506    1.000
    H391     H        0.80043    0.11054    0.36300    1.000
    H392     H        0.88996    0.21270    0.36062    1.000
    H393     H        0.35569    0.12283    0.35440    1.000
    H394     H        0.39213    0.23141    0.34753    1.000
    H395     H        0.29022    0.16478    0.36676    1.000
    H396     H        0.19957    0.31011    0.86300    1.000
    H397     H        0.20941    0.40520    0.84506    1.000
    H398     H        0.11004    0.32274    0.86062    1.000
    H399     H        0.18235    0.78018    0.84563    1.000
    H400     H        0.22249    0.88720    0.85825    1.000
    H401     H        0.11418    0.81360    0.86480    1.000
    H402     H        0.60787    0.83928    0.84753    1.000
    H403     H        0.64431    0.76714    0.85440    1.000
    H404     H        0.70978    0.87456    0.86676    1.000
