# CIF file generated by openbabel 3.1.0, see https://openbabel.org
data_I
_chemical_name_common 'image0'
_cell_length_a 20.276
_cell_length_b 7.5323
_cell_length_c 6.76
_cell_angle_alpha 90
_cell_angle_beta 100.72
_cell_angle_gamma 90
_space_group_name_H-M_alt 'P 1'
_space_group_name_Hall 'P 1'
loop_
    _symmetry_equiv_pos_as_xyz
    x,y,z
loop_
    _atom_site_label
    _atom_site_type_symbol
    _atom_site_fract_x
    _atom_site_fract_y
    _atom_site_fract_z
    _atom_site_occupancy
    Al1      Al       0.99872    0.00020    0.99870    1.000
    O1       O        0.99980    0.88990    0.74450    1.000
    O2       O        0.21503    0.22064    0.19301    1.000
    O3       O        0.28083    0.26844    0.25201    1.000
    C1       C        0.07920    0.12171    0.06219    1.000
    C2       C        0.41735    0.36737    0.36533    1.000
    C3       C        0.18884    0.19673    0.99238    1.000
    C4       C        0.22846    0.22064    0.85075    1.000
    C5       C        0.29427    0.26844    0.90974    1.000
    C6       C        0.32045    0.29235    0.11037    1.000
    C7       C        0.11679    0.14439    0.92780    1.000
    C8       C        0.09195    0.12171    0.73742    1.000
    C9       C        0.39250    0.34469    0.17496    1.000
    C10      C        0.43010    0.36737    0.04056    1.000
    Al2      Al       0.49872    0.50020    0.99870    1.000
    O4       O        0.49980    0.38990    0.74450    1.000
    O5       O        0.71503    0.72064    0.19301    1.000
    O6       O        0.78083    0.76844    0.25201    1.000
    C11      C        0.57920    0.62171    0.06219    1.000
    C12      C        0.91735    0.86737    0.36533    1.000
    C13      C        0.68884    0.69673    0.99238    1.000
    C14      C        0.72846    0.72064    0.85075    1.000
    C15      C        0.79427    0.76844    0.90974    1.000
    C16      C        0.82045    0.79235    0.11037    1.000
    C17      C        0.61679    0.64439    0.92780    1.000
    C18      C        0.59195    0.62171    0.73742    1.000
    C19      C        0.89250    0.84469    0.17496    1.000
    C20      C        0.93010    0.86737    0.04056    1.000
    Al3      Al       0.99872    0.99980    0.49870    1.000
    O7       O        0.99980    0.11010    0.24450    1.000
    O8       O        0.21503    0.77936    0.69301    1.000
    O9       O        0.28083    0.73156    0.75201    1.000
    C21      C        0.07920    0.87829    0.56219    1.000
    C22      C        0.41735    0.63263    0.86533    1.000
    C23      C        0.18884    0.80327    0.49238    1.000
    C24      C        0.22846    0.77936    0.35075    1.000
    C25      C        0.29427    0.73156    0.40974    1.000
    C26      C        0.32045    0.70765    0.61037    1.000
    C27      C        0.11679    0.85561    0.42780    1.000
    C28      C        0.09195    0.87829    0.23742    1.000
    C29      C        0.39250    0.65531    0.67496    1.000
    C30      C        0.43010    0.63263    0.54056    1.000
    Al4      Al       0.49872    0.49980    0.49870    1.000
    O10      O        0.49980    0.61010    0.24450    1.000
    O11      O        0.71503    0.27936    0.69301    1.000
    O12      O        0.78083    0.23156    0.75201    1.000
    C31      C        0.57920    0.37829    0.56219    1.000
    C32      C        0.91735    0.13263    0.86533    1.000
    C33      C        0.68884    0.30327    0.49238    1.000
    C34      C        0.72846    0.27936    0.35075    1.000
    C35      C        0.79427    0.23156    0.40974    1.000
    C36      C        0.82045    0.20765    0.61037    1.000
    C37      C        0.61679    0.35561    0.42780    1.000
    C38      C        0.59195    0.37829    0.23742    1.000
    C39      C        0.89250    0.15531    0.67496    1.000
    C40      C        0.93010    0.13263    0.54056    1.000
