# CIF file generated by openbabel 3.1.0, see https://openbabel.org
data_I
_chemical_name_common 'YACHOB_clean'
_cell_length_a 10.1108
_cell_length_b 10.811
_cell_length_c 13.7409
_cell_angle_alpha 79.139
_cell_angle_beta 78.745
_cell_angle_gamma 86.219
_space_group_name_H-M_alt 'P 1'
_space_group_name_Hall 'P 1'
loop_
    _symmetry_equiv_pos_as_xyz
    x,y,z
loop_
    _atom_site_label
    _atom_site_type_symbol
    _atom_site_fract_x
    _atom_site_fract_y
    _atom_site_fract_z
    _atom_site_occupancy
    Dy1      Dy       0.18189    0.07745    0.20323    1.000
    Dy2      Dy       0.81811    0.92255    0.79677    1.000
    Co1      Co       0.50000    0.50000    0.00000    1.000
    H1       H        0.17250    0.32970    0.34660    1.000
    H2       H        0.15340    0.67170    0.42400    1.000
    H3       H        0.21790    0.64060    0.13180    1.000
    H4       H        0.14430    0.54550    0.75800    1.000
    H5       H        0.13450    0.42770    0.91570    1.000
    H6       H        0.14500    0.11830    0.81120    1.000
    H7       H        0.15480    0.22520    0.64980    1.000
    H8       H        0.80610    0.14690    0.46250    1.000
    H9       H        0.41090    0.16000    0.45970    1.000
    H10      H        0.67630    0.08650    0.21770    1.000
    H11      H        0.49120    0.52270    0.62990    1.000
    H12      H        0.48770    0.59290    0.77750    1.000
    H13      H        0.46660    0.25090    0.92930    1.000
    H14      H        0.48080    0.16960    0.78450    1.000
    H15      H        0.12090    0.35360    0.51840    1.000
    H16      H        0.61880    0.15710    0.61840    1.000
    H17      H        0.82750    0.67030    0.65340    1.000
    H18      H        0.84660    0.32830    0.57600    1.000
    H19      H        0.78210    0.35940    0.86820    1.000
    H20      H        0.85570    0.45450    0.24200    1.000
    H21      H        0.86550    0.57230    0.08430    1.000
    H22      H        0.85500    0.88170    0.18880    1.000
    H23      H        0.84520    0.77480    0.35020    1.000
    H24      H        0.19390    0.85310    0.53750    1.000
    H25      H        0.58910    0.84000    0.54030    1.000
    H26      H        0.32370    0.91350    0.78230    1.000
    H27      H        0.50880    0.47730    0.37010    1.000
    H28      H        0.51230    0.40710    0.22250    1.000
    H29      H        0.53340    0.74910    0.07070    1.000
    H30      H        0.51920    0.83040    0.21550    1.000
    H31      H        0.87910    0.64640    0.48160    1.000
    H32      H        0.38120    0.84290    0.38160    1.000
    C1       C        0.20080    0.47270    0.22700    1.000
    C2       C        0.17800    0.41680    0.32850    1.000
    C3       C        0.16350    0.49010    0.40300    1.000
    C4       C        0.16500    0.62130    0.37490    1.000
    C5       C        0.18370    0.67530    0.27450    1.000
    C6       C        0.20330    0.60270    0.19950    1.000
    C7       C        0.18720    0.81460    0.24720    1.000
    C8       C        0.23240    0.39290    0.14660    1.000
    C9       C        0.16520    0.48270    0.58190    1.000
    C10      C        0.15170    0.39970    0.68440    1.000
    C11      C        0.14500    0.45810    0.76670    1.000
    C12      C        0.13920    0.38650    0.86150    1.000
    C13      C        0.14530    0.20590    0.79990    1.000
    C14      C        0.15120    0.26910    0.70240    1.000
    C15      C        0.76340    0.11360    0.33160    1.000
    C16      C        0.73560    0.14160    0.42900    1.000
    C17      C        0.60470    0.16130    0.47550    1.000
    C18      C        0.49960    0.14890    0.42760    1.000
    C19      C        0.52660    0.11970    0.33100    1.000
    C20      C        0.65840    0.10380    0.28280    1.000
    C21      C        0.90860    0.09830    0.28350    1.000
    C22      C        0.40880    0.10870    0.28270    1.000
    C23      C        0.49580    0.29450    0.59130    1.000
    C24      C        0.49020    0.33820    0.69040    1.000
    C25      C        0.48930    0.46530    0.68980    1.000
    C26      C        0.48560    0.50670    0.77910    1.000
    C27      C        0.47470    0.30610    0.86790    1.000
    C28      C        0.48170    0.25620    0.78140    1.000
    C29      C        0.79920    0.52730    0.77300    1.000
    C30      C        0.82200    0.58320    0.67150    1.000
    C31      C        0.83650    0.50990    0.59700    1.000
    C32      C        0.83500    0.37870    0.62510    1.000
    C33      C        0.81630    0.32470    0.72550    1.000
    C34      C        0.79670    0.39730    0.80050    1.000
    C35      C        0.81280    0.18540    0.75280    1.000
    C36      C        0.76760    0.60710    0.85340    1.000
    C37      C        0.83480    0.51730    0.41810    1.000
    C38      C        0.84830    0.60030    0.31560    1.000
    C39      C        0.85500    0.54190    0.23330    1.000
    C40      C        0.86080    0.61350    0.13850    1.000
    C41      C        0.85470    0.79410    0.20010    1.000
    C42      C        0.84880    0.73090    0.29760    1.000
    C43      C        0.23660    0.88640    0.66840    1.000
    C44      C        0.26440    0.85840    0.57100    1.000
    C45      C        0.39530    0.83870    0.52450    1.000
    C46      C        0.50040    0.85110    0.57240    1.000
    C47      C        0.47340    0.88030    0.66900    1.000
    C48      C        0.34160    0.89620    0.71720    1.000
    C49      C        0.09140    0.90170    0.71650    1.000
    C50      C        0.59120    0.89130    0.71730    1.000
    C51      C        0.50420    0.70550    0.40870    1.000
    C52      C        0.50980    0.66180    0.30960    1.000
    C53      C        0.51070    0.53470    0.31020    1.000
    C54      C        0.51440    0.49330    0.22090    1.000
    C55      C        0.52530    0.69390    0.13210    1.000
    C56      C        0.51830    0.74380    0.21860    1.000
    N1       N        0.14610    0.43040    0.50450    1.000
    N2       N        0.14000    0.26170    0.87910    1.000
    N3       N        0.57920    0.19820    0.57160    1.000
    N4       N        0.47900    0.42910    0.86790    1.000
    N5       N        0.85390    0.56960    0.49550    1.000
    N6       N        0.86000    0.73830    0.12090    1.000
    N7       N        0.42080    0.80180    0.42840    1.000
    N8       N        0.52100    0.57090    0.13210    1.000
    O1       O        0.30690    0.43510    0.06510    1.000
    O2       O        0.18010    0.28650    0.16540    1.000
    O3       O        0.17080    0.87170    0.16180    1.000
    O4       O        0.20720    0.87820    0.31070    1.000
    O5       O        0.19210    0.59180    0.57440    1.000
    O6       O        0.94270    0.09880    0.19060    1.000
    O7       O        0.99760    0.08420    0.33640    1.000
    O8       O        0.42650    0.09330    0.19080    1.000
    O9       O        0.29170    0.11510    0.33220    1.000
    O10      O        0.42400    0.35110    0.53310    1.000
    O11      O        0.69310    0.56490    0.93490    1.000
    O12      O        0.81990    0.71350    0.83460    1.000
    O13      O        0.82920    0.12830    0.83820    1.000
    O14      O        0.79280    0.12180    0.68930    1.000
    O15      O        0.80790    0.40820    0.42560    1.000
    O16      O        0.05730    0.90120    0.80940    1.000
    O17      O        0.00240    0.91580    0.66360    1.000
    O18      O        0.57350    0.90670    0.80920    1.000
    O19      O        0.70830    0.88490    0.66780    1.000
    O20      O        0.57600    0.64890    0.46690    1.000
