# CIF file generated by openbabel 3.1.0, see https://openbabel.org
data_I
_chemical_name_common 'image0'
_cell_length_a 5.4573
_cell_length_b 8.965
_cell_length_c 15.253
_cell_angle_alpha 90
_cell_angle_beta 98.924
_cell_angle_gamma 90
_space_group_name_H-M_alt 'P 1'
_space_group_name_Hall 'P 1'
loop_
    _symmetry_equiv_pos_as_xyz
    x,y,z
loop_
    _atom_site_label
    _atom_site_type_symbol
    _atom_site_fract_x
    _atom_site_fract_y
    _atom_site_fract_z
    _atom_site_occupancy
    Mn1      Mn       0.10100    0.48380    0.81816    1.000
    P1       P        0.60970    0.25960    0.81943    1.000
    O1       O        0.22490    0.39860    0.95660    1.000
    O2       O        0.85240    0.30160    0.78990    1.000
    O3       O        0.54630    0.09560    0.80120    1.000
    O4       O        0.12480    0.39430    0.09270    1.000
    O5       O        0.39750    0.36020    0.77950    1.000
    O6       O        0.65480    0.27840    0.92520    1.000
    C1       C        0.10100    0.44020    0.01420    1.000
    H1       H        0.54000    0.29000    0.93300    1.000
    Mn2      Mn       0.39900    0.98380    0.68184    1.000
    P2       P        0.89030    0.75960    0.68057    1.000
    O7       O        0.27510    0.89860    0.54340    1.000
    O8       O        0.64760    0.80160    0.71010    1.000
    O9       O        0.95370    0.59560    0.69880    1.000
    O10      O        0.37520    0.89430    0.40730    1.000
    O11      O        0.10250    0.86020    0.72050    1.000
    O12      O        0.84520    0.77840    0.57480    1.000
    C2       C        0.39900    0.94020    0.48580    1.000
    H2       H        0.96000    0.79000    0.56700    1.000
    Mn3      Mn       0.89900    0.51620    0.18184    1.000
    P3       P        0.39030    0.74040    0.18057    1.000
    O13      O        0.77510    0.60140    0.04340    1.000
    O14      O        0.14760    0.69840    0.21010    1.000
    O15      O        0.45370    0.90440    0.19880    1.000
    O16      O        0.87520    0.60570    0.90730    1.000
    O17      O        0.60250    0.63980    0.22050    1.000
    O18      O        0.34520    0.72160    0.07480    1.000
    C3       C        0.89900    0.55980    0.98580    1.000
    H3       H        0.46000    0.71000    0.06700    1.000
    Mn4      Mn       0.60100    0.01620    0.31816    1.000
    P4       P        0.10970    0.24040    0.31943    1.000
    O19      O        0.72490    0.10140    0.45660    1.000
    O20      O        0.35240    0.19840    0.28990    1.000
    O21      O        0.04630    0.40440    0.30120    1.000
    O22      O        0.62480    0.10570    0.59270    1.000
    O23      O        0.89750    0.13980    0.27950    1.000
    O24      O        0.15480    0.22160    0.42520    1.000
    C4       C        0.60100    0.05980    0.51420    1.000
    H4       H        0.04000    0.21000    0.43300    1.000
