# CIF file generated by openbabel 3.1.0, see https://openbabel.org
data_I
_chemical_name_common 'image0'
_cell_length_a 11.561
_cell_length_b 20.816
_cell_length_c 23.676
_cell_angle_alpha 90
_cell_angle_beta 90
_cell_angle_gamma 90
_space_group_name_H-M_alt 'P 1'
_space_group_name_Hall 'P 1'
loop_
    _symmetry_equiv_pos_as_xyz
    x,y,z
loop_
    _atom_site_label
    _atom_site_type_symbol
    _atom_site_fract_x
    _atom_site_fract_y
    _atom_site_fract_z
    _atom_site_occupancy
    Eu1      Eu       0.58077    0.96420    0.26840    1.000
    Eu2      Eu       0.91725    0.97328    0.26576    1.000
    Eu3      Eu       0.75634    0.87699    0.15193    1.000
    Eu4      Eu       0.73532    0.06703    0.15705    1.000
    O1       O        0.74090    0.03300    0.25630    1.000
    H1       H        0.73820    0.06970    0.28210    1.000
    N1       N        0.10090    0.18120    0.29400    1.000
    H2       H        0.13080    0.21630    0.30980    1.000
    H3       H        0.14700    0.16790    0.26620    1.000
    H4       H        0.09470    0.15040    0.31990    1.000
    C1       C        0.93130    0.13620    0.24450    1.000
    O2       O        0.86220    0.97600    0.16930    1.000
    H5       H        0.93010    0.97930    0.14470    1.000
    C2       C        0.98410    0.19630    0.27060    1.000
    H6       H        0.93470    0.20900    0.30230    1.000
    N2       N        0.86090    0.91760    0.46870    1.000
    H7       H        0.85980    0.91540    0.50620    1.000
    H8       H        0.92310    0.93940    0.45760    1.000
    H9       H        0.86320    0.87810    0.45440    1.000
    O3       O        0.75240    0.90510    0.25130    1.000
    H10      H        0.75630    0.86670    0.27520    1.000
    C3       C        0.99210    0.25310    0.23080    1.000
    H11      H        0.91600    0.26050    0.21490    1.000
    H12      H        0.04300    0.24140    0.19990    1.000
    N3       N        0.38130    0.75520    0.27870    1.000
    H13      H        0.35060    0.71940    0.29280    1.000
    H14      H        0.33990    0.76810    0.24910    1.000
    H15      H        0.38100    0.78580    0.30490    1.000
    O4       O        0.62400    0.96790    0.17060    1.000
    H16      H        0.55440    0.96650    0.14700    1.000
    C4       C        0.03520    0.31600    0.25580    1.000
    O5       O        0.97760    0.08410    0.25750    1.000
    C5       C        0.75400    0.95520    0.38390    1.000
    C6       C        0.75690    0.95030    0.44890    1.000
    H17      H        0.68890    0.92620    0.46170    1.000
    O6       O        0.84860    0.14600    0.21200    1.000
    O7       O        0.10040    0.31320    0.29730    1.000
    C7       C        0.74920    0.01850    0.47130    1.000
    H18      H        0.81340    0.04300    0.45620    1.000
    H19      H        0.67840    0.03790    0.45730    1.000
    O8       O        0.00720    0.36710    0.23240    1.000
    C8       C        0.75080    0.02410    0.53500    1.000
    O9       O        0.65730    0.95960    0.36200    1.000
    C9       C        0.55320    0.80470    0.23720    1.000
    O10      O        0.85090    0.95640    0.36020    1.000
    C10      C        0.50200    0.74240    0.26060    1.000
    H20      H        0.54620    0.73110    0.29450    1.000
    O11      O        0.74380    0.07950    0.55560    1.000
    C11      C        0.50720    0.68540    0.22100    1.000
    H21      H        0.58580    0.68100    0.20730    1.000
    H22      H        0.45810    0.69420    0.18860    1.000
    O12      O        0.75480    0.97370    0.56290    1.000
    C12      C        0.47000    0.62200    0.24700    1.000
    O13      O        0.51240    0.85640    0.25560    1.000
    O14      O        0.63250    0.79830    0.20140    1.000
    O15      O        0.41400    0.62460    0.29150    1.000
    O16      O        0.49620    0.57120    0.22100    1.000
    Eu5      Eu       0.91923    0.03580    0.76840    1.000
    Eu6      Eu       0.58275    0.02672    0.76576    1.000
    Eu7      Eu       0.74366    0.12301    0.65193    1.000
    Eu8      Eu       0.76468    0.93297    0.65705    1.000
    O17      O        0.75910    0.96700    0.75630    1.000
    H23      H        0.76180    0.93030    0.78210    1.000
    N4       N        0.39910    0.81880    0.79400    1.000
    H24      H        0.36920    0.78370    0.80980    1.000
    H25      H        0.35300    0.83210    0.76620    1.000
    H26      H        0.40530    0.84960    0.81990    1.000
    C13      C        0.56870    0.86380    0.74450    1.000
    O18      O        0.63780    0.02400    0.66930    1.000
    H27      H        0.56990    0.02070    0.64470    1.000
    C14      C        0.51590    0.80370    0.77060    1.000
    H28      H        0.56530    0.79100    0.80230    1.000
    N5       N        0.63910    0.08240    0.96870    1.000
    H29      H        0.64020    0.08460    0.00620    1.000
    H30      H        0.57690    0.06060    0.95760    1.000
    H31      H        0.63680    0.12190    0.95440    1.000
    O19      O        0.74760    0.09490    0.75130    1.000
    H32      H        0.74370    0.13330    0.77520    1.000
    C15      C        0.50790    0.74690    0.73080    1.000
    H33      H        0.58400    0.73950    0.71490    1.000
    H34      H        0.45700    0.75860    0.69990    1.000
    N6       N        0.11870    0.24480    0.77870    1.000
    H35      H        0.14940    0.28060    0.79280    1.000
    H36      H        0.16010    0.23190    0.74910    1.000
    H37      H        0.11900    0.21420    0.80490    1.000
    O20      O        0.87600    0.03210    0.67060    1.000
    H38      H        0.94560    0.03350    0.64700    1.000
    C16      C        0.46480    0.68400    0.75580    1.000
    O21      O        0.52240    0.91590    0.75750    1.000
    C17      C        0.74600    0.04480    0.88390    1.000
    C18      C        0.74310    0.04970    0.94890    1.000
    H39      H        0.81110    0.07380    0.96170    1.000
    O22      O        0.65140    0.85400    0.71200    1.000
    O23      O        0.39960    0.68680    0.79730    1.000
    C19      C        0.75080    0.98150    0.97130    1.000
    H40      H        0.68660    0.95700    0.95620    1.000
    H41      H        0.82160    0.96210    0.95730    1.000
    O24      O        0.49280    0.63290    0.73240    1.000
    C20      C        0.74920    0.97590    0.03500    1.000
    O25      O        0.84270    0.04040    0.86200    1.000
    C21      C        0.94680    0.19530    0.73720    1.000
    O26      O        0.64910    0.04360    0.86020    1.000
    C22      C        0.99800    0.25760    0.76060    1.000
    H42      H        0.95380    0.26890    0.79450    1.000
    O27      O        0.75620    0.92050    0.05560    1.000
    C23      C        0.99280    0.31460    0.72100    1.000
    H43      H        0.91420    0.31900    0.70730    1.000
    H44      H        0.04190    0.30580    0.68860    1.000
    O28      O        0.74520    0.02630    0.06290    1.000
    C24      C        0.03000    0.37800    0.74700    1.000
    O29      O        0.98760    0.14360    0.75560    1.000
    O30      O        0.86750    0.20170    0.70140    1.000
    O31      O        0.08600    0.37540    0.79150    1.000
    O32      O        0.00380    0.42880    0.72100    1.000
    Eu9      Eu       0.41923    0.46420    0.23160    1.000
    Eu10     Eu       0.08275    0.47328    0.23424    1.000
    Eu11     Eu       0.24366    0.37699    0.34807    1.000
    Eu12     Eu       0.26468    0.56703    0.34295    1.000
    O33      O        0.25910    0.53300    0.24370    1.000
    H45      H        0.26180    0.56970    0.21790    1.000
    N7       N        0.89910    0.68120    0.20600    1.000
    H46      H        0.86920    0.71630    0.19020    1.000
    H47      H        0.85300    0.66790    0.23380    1.000
    H48      H        0.90530    0.65040    0.18010    1.000
    C25      C        0.06870    0.63620    0.25550    1.000
    O34      O        0.13780    0.47600    0.33070    1.000
    H49      H        0.06990    0.47930    0.35530    1.000
    C26      C        0.01590    0.69630    0.22940    1.000
    H50      H        0.06530    0.70900    0.19770    1.000
    N8       N        0.13910    0.41760    0.03130    1.000
    H51      H        0.14020    0.41540    0.99380    1.000
    H52      H        0.07690    0.43940    0.04240    1.000
    H53      H        0.13680    0.37810    0.04560    1.000
    O35      O        0.24760    0.40510    0.24870    1.000
    H54      H        0.24370    0.36670    0.22480    1.000
    C27      C        0.00790    0.75310    0.26920    1.000
    H55      H        0.08400    0.76050    0.28510    1.000
    H56      H        0.95700    0.74140    0.30010    1.000
    N9       N        0.61870    0.25520    0.22130    1.000
    H57      H        0.64940    0.21940    0.20720    1.000
    H58      H        0.66010    0.26810    0.25090    1.000
    H59      H        0.61900    0.28580    0.19510    1.000
    O36      O        0.37600    0.46790    0.32940    1.000
    H60      H        0.44560    0.46650    0.35300    1.000
    C28      C        0.96480    0.81600    0.24420    1.000
    O37      O        0.02240    0.58410    0.24250    1.000
    C29      C        0.24600    0.45520    0.11610    1.000
    C30      C        0.24310    0.45030    0.05110    1.000
    H61      H        0.31110    0.42620    0.03830    1.000
    O38      O        0.15140    0.64600    0.28800    1.000
    O39      O        0.89960    0.81320    0.20270    1.000
    C31      C        0.25080    0.51850    0.02870    1.000
    H62      H        0.18660    0.54300    0.04380    1.000
    H63      H        0.32160    0.53790    0.04270    1.000
    O40      O        0.99280    0.86710    0.26760    1.000
    C32      C        0.24920    0.52410    0.96500    1.000
    O41      O        0.34270    0.45960    0.13800    1.000
    C33      C        0.44680    0.30470    0.26280    1.000
    O42      O        0.14910    0.45640    0.13980    1.000
    C34      C        0.49800    0.24240    0.23940    1.000
    H64      H        0.45380    0.23110    0.20550    1.000
    O43      O        0.25620    0.57950    0.94440    1.000
    C35      C        0.49280    0.18540    0.27900    1.000
    H65      H        0.41420    0.18100    0.29270    1.000
    H66      H        0.54190    0.19420    0.31140    1.000
    O44      O        0.24520    0.47370    0.93710    1.000
    C36      C        0.53000    0.12200    0.25300    1.000
    O45      O        0.48760    0.35640    0.24440    1.000
    O46      O        0.36750    0.29830    0.29860    1.000
    O47      O        0.58600    0.12460    0.20850    1.000
    O48      O        0.50380    0.07120    0.27900    1.000
    Eu13     Eu       0.08077    0.53580    0.73160    1.000
    Eu14     Eu       0.41725    0.52672    0.73424    1.000
    Eu15     Eu       0.25634    0.62301    0.84807    1.000
    Eu16     Eu       0.23532    0.43297    0.84295    1.000
    O49      O        0.24090    0.46700    0.74370    1.000
    H67      H        0.23820    0.43030    0.71790    1.000
    N10      N        0.60090    0.31880    0.70600    1.000
    H68      H        0.63080    0.28370    0.69020    1.000
    H69      H        0.64700    0.33210    0.73380    1.000
    H70      H        0.59470    0.34960    0.68010    1.000
    C37      C        0.43130    0.36380    0.75550    1.000
    O50      O        0.36220    0.52400    0.83070    1.000
    H71      H        0.43010    0.52070    0.85530    1.000
    C38      C        0.48410    0.30370    0.72940    1.000
    H72      H        0.43470    0.29100    0.69770    1.000
    N11      N        0.36090    0.58240    0.53130    1.000
    H73      H        0.35980    0.58460    0.49380    1.000
    H74      H        0.42310    0.56060    0.54240    1.000
    H75      H        0.36320    0.62190    0.54560    1.000
    O51      O        0.25240    0.59490    0.74870    1.000
    H76      H        0.25630    0.63330    0.72480    1.000
    C39      C        0.49210    0.24690    0.76920    1.000
    H77      H        0.41600    0.23950    0.78510    1.000
    H78      H        0.54300    0.25860    0.80010    1.000
    N12      N        0.88130    0.74480    0.72130    1.000
    H79      H        0.85060    0.78060    0.70720    1.000
    H80      H        0.83990    0.73190    0.75090    1.000
    H81      H        0.88100    0.71420    0.69510    1.000
    O52      O        0.12400    0.53210    0.82940    1.000
    H82      H        0.05440    0.53350    0.85300    1.000
    C40      C        0.53520    0.18400    0.74420    1.000
    O53      O        0.47760    0.41590    0.74250    1.000
    C41      C        0.25400    0.54480    0.61610    1.000
    C42      C        0.25690    0.54970    0.55110    1.000
    H83      H        0.18890    0.57380    0.53830    1.000
    O54      O        0.34860    0.35400    0.78800    1.000
    O55      O        0.60040    0.18680    0.70270    1.000
    C43      C        0.24920    0.48150    0.52870    1.000
    H84      H        0.31340    0.45700    0.54380    1.000
    H85      H        0.17840    0.46210    0.54270    1.000
    O56      O        0.50720    0.13290    0.76760    1.000
    C44      C        0.25080    0.47590    0.46500    1.000
    O57      O        0.15730    0.54040    0.63800    1.000
    C45      C        0.05320    0.69530    0.76280    1.000
    O58      O        0.35090    0.54360    0.63980    1.000
    C46      C        0.00200    0.75760    0.73940    1.000
    H86      H        0.04620    0.76890    0.70550    1.000
    O59      O        0.24380    0.42050    0.44440    1.000
    C47      C        0.00720    0.81460    0.77900    1.000
    H87      H        0.08580    0.81900    0.79270    1.000
    H88      H        0.95810    0.80580    0.81140    1.000
    O60      O        0.25480    0.52630    0.43710    1.000
    C48      C        0.97000    0.87800    0.75300    1.000
    O61      O        0.01240    0.64360    0.74440    1.000
    O62      O        0.13250    0.70170    0.79860    1.000
    O63      O        0.91400    0.87540    0.70850    1.000
    O64      O        0.99620    0.92880    0.77900    1.000
