# CIF file generated by openbabel 3.1.0, see https://openbabel.org
data_I
_chemical_name_common 'LUSZOP_clean'
_cell_length_a 7.3333
_cell_length_b 10.1729
_cell_length_c 18.153
_cell_angle_alpha 90
_cell_angle_beta 90
_cell_angle_gamma 94.379
_space_group_name_H-M_alt 'P 1'
_space_group_name_Hall 'P 1'
loop_
    _symmetry_equiv_pos_as_xyz
    x,y,z
loop_
    _atom_site_label
    _atom_site_type_symbol
    _atom_site_fract_x
    _atom_site_fract_y
    _atom_site_fract_z
    _atom_site_occupancy
    Cu1      Cu       0.86557    0.21710    0.90573    1.000
    Cu2      Cu       0.04401    0.93194    0.93145    1.000
    Cu3      Cu       0.63443    0.28290    0.40573    1.000
    Cu4      Cu       0.45599    0.56806    0.43145    1.000
    Cu5      Cu       0.13443    0.78290    0.09427    1.000
    Cu6      Cu       0.95599    0.06806    0.06855    1.000
    Cu7      Cu       0.36557    0.71710    0.59427    1.000
    Cu8      Cu       0.54401    0.43194    0.56855    1.000
    H1       H        0.78250    0.16560    0.69220    1.000
    H2       H        0.93790    0.79620    0.70670    1.000
    H3       H        0.77890    0.93810    0.51160    1.000
    H4       H        0.71750    0.33440    0.19220    1.000
    H5       H        0.56210    0.70380    0.20670    1.000
    H6       H        0.72110    0.56190    0.01160    1.000
    H7       H        0.21750    0.83440    0.30780    1.000
    H8       H        0.06210    0.20380    0.29330    1.000
    H9       H        0.22110    0.06190    0.48840    1.000
    H10      H        0.28250    0.66560    0.80780    1.000
    H11      H        0.43790    0.29620    0.79330    1.000
    H12      H        0.27890    0.43810    0.98840    1.000
    C1       C        0.86280    0.84970    0.60450    1.000
    C2       C        0.77160    0.07010    0.59550    1.000
    C3       C        0.80430    0.08590    0.67000    1.000
    C4       C        0.86930    0.98520    0.71310    1.000
    C5       C        0.90230    0.00930    0.79240    1.000
    C6       C        0.89690    0.86530    0.67930    1.000
    C7       C        0.80070    0.95030    0.56170    1.000
    C8       C        0.69970    0.18300    0.55360    1.000
    C9       C        0.63720    0.65030    0.10450    1.000
    C10      C        0.72840    0.42990    0.09550    1.000
    C11      C        0.69570    0.41410    0.17000    1.000
    C12      C        0.63070    0.51480    0.21310    1.000
    C13      C        0.59770    0.49070    0.29240    1.000
    C14      C        0.60310    0.63470    0.17930    1.000
    C15      C        0.69930    0.54970    0.06170    1.000
    C16      C        0.80030    0.31700    0.05360    1.000
    C17      C        0.13720    0.15030    0.39550    1.000
    C18      C        0.22840    0.92990    0.40450    1.000
    C19      C        0.19570    0.91410    0.33000    1.000
    C20      C        0.13070    0.01480    0.28690    1.000
    C21      C        0.09770    0.99070    0.20760    1.000
    C22      C        0.10310    0.13470    0.32070    1.000
    C23      C        0.19930    0.04970    0.43830    1.000
    C24      C        0.30030    0.81700    0.44640    1.000
    C25      C        0.36280    0.34970    0.89550    1.000
    C26      C        0.27160    0.57010    0.90450    1.000
    C27      C        0.30430    0.58590    0.83000    1.000
    C28      C        0.36930    0.48520    0.78690    1.000
    C29      C        0.40230    0.50930    0.70760    1.000
    C30      C        0.39690    0.36530    0.82070    1.000
    C31      C        0.30070    0.45030    0.93830    1.000
    C32      C        0.19970    0.68300    0.94640    1.000
    S1       S        0.88017    0.69104    0.56548    1.000
    S2       S        0.61983    0.80896    0.06548    1.000
    S3       S        0.11983    0.30896    0.43452    1.000
    S4       S        0.38017    0.19104    0.93452    1.000
    O1       O        0.94730    0.91410    0.83220    1.000
    O2       O        0.87040    0.05710    0.96530    1.000
    O3       O        0.65950    0.16350    0.48700    1.000
    O4       O        0.88160    0.12540    0.81420    1.000
    O5       O        0.87180    0.70260    0.48720    1.000
    O6       O        0.68690    0.28620    0.59010    1.000
    O7       O        0.72600    0.61300    0.59680    1.000
    O8       O        0.04980    0.64500    0.59330    1.000
    O9       O        0.55270    0.58590    0.33220    1.000
    O10      O        0.62960    0.44290    0.46530    1.000
    O11      O        0.84050    0.33650    0.98700    1.000
    O12      O        0.61840    0.37460    0.31420    1.000
    O13      O        0.62820    0.79740    0.98720    1.000
    O14      O        0.81310    0.21380    0.09010    1.000
    O15      O        0.77400    0.88700    0.09680    1.000
    O16      O        0.45020    0.85500    0.09330    1.000
    O17      O        0.05270    0.08590    0.16780    1.000
    O18      O        0.12960    0.94290    0.03470    1.000
    O19      O        0.34050    0.83650    0.51300    1.000
    O20      O        0.11840    0.87460    0.18580    1.000
    O21      O        0.12820    0.29740    0.51280    1.000
    O22      O        0.31310    0.71380    0.40990    1.000
    O23      O        0.27400    0.38700    0.40320    1.000
    O24      O        0.95020    0.35500    0.40670    1.000
    O25      O        0.44730    0.41410    0.66780    1.000
    O26      O        0.37040    0.55710    0.53470    1.000
    O27      O        0.15950    0.66350    0.01300    1.000
    O28      O        0.38160    0.62540    0.68580    1.000
    O29      O        0.37180    0.20260    0.01280    1.000
    O30      O        0.18690    0.78620    0.90990    1.000
    O31      O        0.22600    0.11300    0.90320    1.000
    O32      O        0.54980    0.14500    0.90670    1.000
