# CIF file generated by openbabel 3.1.0, see https://openbabel.org
data_I
_chemical_name_common 'GOYYEA_clean'
_cell_length_a 9.446
_cell_length_b 12.0055
_cell_length_c 16.685
_cell_angle_alpha 96.2751
_cell_angle_beta 90
_cell_angle_gamma 113.166
_space_group_name_H-M_alt 'P 1'
_space_group_name_Hall 'P 1'
loop_
    _symmetry_equiv_pos_as_xyz
    x,y,z
loop_
    _atom_site_label
    _atom_site_type_symbol
    _atom_site_fract_x
    _atom_site_fract_y
    _atom_site_fract_z
    _atom_site_occupancy
    Y1       Y        0.30306    0.00900    0.43404    1.000
    Y2       Y        0.70594    0.00900    0.93404    1.000
    Y3       Y        0.69694    0.99100    0.56596    1.000
    Y4       Y        0.29406    0.99100    0.06596    1.000
    Ag1      Ag       0.71713    0.68214    0.41882    1.000
    Ag2      Ag       0.03499    0.31786    0.08118    1.000
    Ag3      Ag       0.28287    0.31786    0.58118    1.000
    Ag4      Ag       0.96501    0.68214    0.91882    1.000
    H1       H        0.10810    0.19800    0.72680    1.000
    H2       H        0.86660    0.90400    0.16930    1.000
    H3       H        0.75080    0.69340    0.05300    1.000
    H4       H        0.13340    0.09600    0.83070    1.000
    H5       H        0.57830    0.19240    0.78050    1.000
    H6       H        0.61410    0.19240    0.28050    1.000
    H7       H        0.13050    0.63240    0.38340    1.000
    H8       H        0.24920    0.30660    0.94700    1.000
    H9       H        0.24320    0.70280    0.81770    1.000
    H10      H        0.96260    0.09600    0.33070    1.000
    H11      H        0.42170    0.80760    0.21950    1.000
    H12      H        0.98900    0.42340    0.36780    1.000
    H13      H        0.08990    0.19800    0.22680    1.000
    H14      H        0.49810    0.36760    0.11660    1.000
    H15      H        0.83100    0.41520    0.95860    1.000
    H16      H        0.58420    0.41520    0.45860    1.000
    H17      H        0.01100    0.57660    0.63220    1.000
    H18      H        0.75680    0.29720    0.18230    1.000
    H19      H        0.56560    0.57660    0.13220    1.000
    H20      H        0.86950    0.36760    0.61660    1.000
    H21      H        0.54040    0.29720    0.68230    1.000
    H22      H        0.50190    0.63240    0.88340    1.000
    H23      H        0.45960    0.70280    0.31770    1.000
    H24      H        0.91010    0.80200    0.77320    1.000
    H25      H        0.05740    0.30660    0.44700    1.000
    H26      H        0.43440    0.42340    0.86780    1.000
    H27      H        0.03740    0.90400    0.66930    1.000
    H28      H        0.38590    0.80760    0.71950    1.000
    H29      H        0.94260    0.69340    0.55300    1.000
    H30      H        0.16900    0.58480    0.04140    1.000
    H31      H        0.89190    0.80200    0.27320    1.000
    H32      H        0.41580    0.58480    0.54140    1.000
    C1       C        0.77530    0.44700    0.99320    1.000
    C2       C        0.61060    0.23460    0.52400    1.000
    C3       C        0.51900    0.80840    0.22940    1.000
    C4       C        0.62400    0.23460    0.02400    1.000
    C5       C        0.08330    0.86620    0.70010    1.000
    C6       C        0.07430    0.45900    0.40380    1.000
    C7       C        0.03350    0.06880    0.51070    1.000
    C8       C        0.20320    0.74660    0.78880    1.000
    C9       C        0.78290    0.86620    0.20010    1.000
    C10      C        0.79680    0.25340    0.21120    1.000
    C11      C        0.61530    0.54100    0.09620    1.000
    C12      C        0.96650    0.93120    0.48930    1.000
    C13      C        0.62080    0.94780    0.12110    1.000
    C14      C        0.35900    0.12840    0.81550    1.000
    C15      C        0.96470    0.93120    0.98930    1.000
    C16      C        0.54340    0.74660    0.28880    1.000
    C17      C        0.57790    0.41780    0.08790    1.000
    C18      C        0.37920    0.05220    0.87890    1.000
    C19      C        0.16010    0.58220    0.41210    1.000
    C20      C        0.11840    0.38980    0.45060    1.000
    C21      C        0.34070    0.63240    0.96330    1.000
    C22      C        0.28940    0.80840    0.72940    1.000
    C23      C        0.83990    0.41780    0.58790    1.000
    C24      C        0.32700    0.94780    0.62110    1.000
    C25      C        0.38470    0.45900    0.90380    1.000
    C26      C        0.20360    0.19620    0.73790    1.000
    C27      C        0.70830    0.36760    0.53670    1.000
    C28      C        0.71060    0.19160    0.27060    1.000
    C29      C        0.92570    0.54100    0.59620    1.000
    C30      C        0.67170    0.44700    0.49320    1.000
    C31      C        0.65930    0.36760    0.03670    1.000
    C32      C        0.29170    0.63240    0.46330    1.000
    C33      C        0.32830    0.55300    0.50680    1.000
    C34      C        0.88160    0.61020    0.54940    1.000
    C35      C        0.21710    0.13380    0.79990    1.000
    C36      C        0.29170    0.06960    0.25480    1.000
    C37      C        0.77790    0.06960    0.75480    1.000
    C38      C        0.72860    0.61020    0.04940    1.000
    C39      C        0.37600    0.76540    0.97600    1.000
    C40      C        0.22210    0.93040    0.24520    1.000
    C41      C        0.22470    0.55300    0.00680    1.000
    C42      C        0.70830    0.93040    0.74520    1.000
    C43      C        0.99260    0.19620    0.23790    1.000
    C44      C        0.23060    0.87160    0.68450    1.000
    C45      C        0.38940    0.76540    0.47600    1.000
    C46      C        0.42210    0.58220    0.91210    1.000
    C47      C        0.91670    0.13380    0.29990    1.000
    C48      C        0.67300    0.05220    0.37890    1.000
    C49      C        0.00740    0.80380    0.76210    1.000
    C50      C        0.45660    0.25340    0.71120    1.000
    C51      C        0.27140    0.38980    0.95060    1.000
    C52      C        0.79640    0.80380    0.26210    1.000
    C53      C        0.64100    0.87160    0.18450    1.000
    C54      C        0.03530    0.06880    0.01070    1.000
    C55      C        0.76940    0.12840    0.31550    1.000
    C56      C        0.48100    0.19160    0.77060    1.000
    N1       N        0.80870    0.56640    0.99950    1.000
    N2       N        0.32160    0.25440    0.69280    1.000
    N3       N        0.93280    0.25440    0.19280    1.000
    N4       N        0.67840    0.74560    0.30720    1.000
    N5       N        0.75770    0.56640    0.49950    1.000
    N6       N        0.06720    0.74560    0.80720    1.000
    N7       N        0.19130    0.43360    0.00050    1.000
    N8       N        0.24230    0.43360    0.50050    1.000
    O1       O        0.03470    0.87260    0.01940    1.000
    O2       O        0.27730    0.79900    0.00700    1.000
    O3       O        0.30470    0.12320    0.32580    1.000
    O4       O        0.96440    0.11520    0.55780    1.000
    O5       O        0.26140    0.98580    0.57340    1.000
    O6       O        0.67120    0.88080    0.80840    1.000
    O7       O        0.67100    0.16680    0.54580    1.000
    O8       O        0.46590    0.96320    0.62240    1.000
    O9       O        0.84920    0.88480    0.94220    1.000
    O10      O        0.52170    0.79900    0.50700    1.000
    O11      O        0.72440    0.98580    0.07340    1.000
    O12      O        0.16210    0.12740    0.48060    1.000
    O13      O        0.72270    0.20100    0.99300    1.000
    O14      O        0.69530    0.87680    0.67420    1.000
    O15      O        0.20960    0.88080    0.30840    1.000
    O16      O        0.27560    0.01420    0.92660    1.000
    O17      O        0.73860    0.01420    0.42660    1.000
    O18      O        0.49730    0.96320    0.12240    1.000
    O19      O        0.53410    0.03680    0.37760    1.000
    O20      O        0.18150    0.87680    0.17420    1.000
    O21      O        0.32880    0.11920    0.19160    1.000
    O22      O        0.03560    0.88480    0.44220    1.000
    O23      O        0.32900    0.83320    0.45420    1.000
    O24      O        0.81850    0.12320    0.82580    1.000
    O25      O        0.15080    0.11520    0.05780    1.000
    O26      O        0.96530    0.12740    0.98060    1.000
    O27      O        0.79040    0.11920    0.69160    1.000
    O28      O        0.50420    0.83320    0.95420    1.000
    O29      O        0.50270    0.03680    0.87760    1.000
    O30      O        0.83790    0.87260    0.51940    1.000
    O31      O        0.49580    0.16680    0.04580    1.000
    O32      O        0.47830    0.20100    0.49300    1.000
