# CIF file generated by openbabel 3.1.0, see https://openbabel.org
data_I
_chemical_name_common 'MATTUX_clean'
_cell_length_a 12.9758
_cell_length_b 13.1095
_cell_length_c 13.9258
_cell_angle_alpha 85.31
_cell_angle_beta 70.71
_cell_angle_gamma 84.193
_space_group_name_H-M_alt 'P 1'
_space_group_name_Hall 'P 1'
loop_
    _symmetry_equiv_pos_as_xyz
    x,y,z
loop_
    _atom_site_label
    _atom_site_type_symbol
    _atom_site_fract_x
    _atom_site_fract_y
    _atom_site_fract_z
    _atom_site_occupancy
    Zn1      Zn       0.19248    0.31891    0.66323    1.000
    Zn2      Zn       0.12893    0.32562    0.88645    1.000
    H1       H        0.76000    0.34740    0.97070    1.000
    H2       H        0.58200    0.34980    0.97210    1.000
    H3       H        0.87210    0.30510    0.66830    1.000
    H4       H        0.44900    0.32940    0.88050    1.000
    H5       H        0.56060    0.28640    0.57850    1.000
    H6       H        0.73720    0.28790    0.57650    1.000
    H7       H        0.20100    0.98860    0.65080    1.000
    H8       H        0.10560    0.82340    0.97650    1.000
    H9       H        0.11710    0.99890    0.95720    1.000
    H10      H        0.12470    0.65550    0.89840    1.000
    H11      H        0.17040    0.64970    0.60100    1.000
    H12      H        0.18410    0.82000    0.57340    1.000
    H13      H        0.11960    0.17490    0.05830    1.000
    H14      H        0.13530    0.16720    0.21750    1.000
    H15      H        0.09900    0.46760    0.21630    1.000
    H16      H        0.08160    0.46630    0.06040    1.000
    H17      H        0.19620    0.16800    0.34260    1.000
    H18      H        0.20900    0.17060    0.50410    1.000
    H19      H        0.09090    0.44830    0.52860    1.000
    H20      H        0.06520    0.45020    0.37310    1.000
    C1       C        0.94839    0.32832    0.81527    1.000
    C2       C        0.83298    0.32694    0.81709    1.000
    C3       C        0.74539    0.33922    0.90934    1.000
    C4       C        0.64024    0.33928    0.91016    1.000
    C5       C        0.61571    0.32408    0.82133    1.000
    C6       C        0.70435    0.31094    0.72831    1.000
    C7       C        0.81252    0.31327    0.72971    1.000
    C8       C        0.50866    0.32175    0.81899    1.000
    C9       C        0.48739    0.30886    0.73100    1.000
    C10      C        0.57488    0.29586    0.63969    1.000
    C11      C        0.67907    0.29686    0.63879    1.000
    C12      C        0.37024    0.31186    0.73314    1.000
    C13      C        0.16280    0.12564    0.79067    1.000
    C14      C        0.15991    0.01121    0.80109    1.000
    C15      C        0.18166    0.95484    0.71665    1.000
    C16      C        0.17558    0.84751    0.72662    1.000
    C17      C        0.14766    0.79746    0.82417    1.000
    C18      C        0.12525    0.85621    0.91027    1.000
    C19      C        0.13174    0.96021    0.89872    1.000
    C20      C        0.14218    0.68976    0.83284    1.000
    C21      C        0.16133    0.63410    0.74972    1.000
    C22      C        0.17000    0.68825    0.65604    1.000
    C23      C        0.17760    0.78769    0.63848    1.000
    C24      C        0.15746    0.51922    0.76033    1.000
    C25      C        0.12950    0.23595    0.08545    1.000
    C26      C        0.13860    0.23120    0.17975    1.000
    C27      C        0.15326    0.32222    0.22350    1.000
    C28      C        0.16399    0.32067    0.32588    1.000
    C29      C        0.11798    0.40591    0.18094    1.000
    C30      C        0.10862    0.40440    0.08729    1.000
    C31      C        0.18660    0.23133    0.37423    1.000
    C32      C        0.19540    0.23400    0.47046    1.000
    C33      C        0.12580    0.39399    0.48513    1.000
    C34      C        0.11110    0.39680    0.39198    1.000
    N1       N        0.13399    0.32378    0.02964    1.000
    N2       N        0.18601    0.32008    0.51920    1.000
    O1       O        0.96610    0.33485    0.89823    1.000
    O2       O        0.02260    0.32630    0.72878    1.000
    O3       O        0.29685    0.31456    0.81760    1.000
    O4       O        0.35438    0.31195    0.64860    1.000
    O5       O        0.19199    0.16632    0.70096    1.000
    O6       O        0.13347    0.17274    0.87144    1.000
    O7       O        0.18100    0.47280    0.67859    1.000
    O8       O        0.13121    0.47804    0.84895    1.000
    Zn3      Zn       0.80752    0.68109    0.33677    1.000
    Zn4      Zn       0.87107    0.67438    0.11355    1.000
    H21      H        0.24000    0.65260    0.02930    1.000
    H22      H        0.41800    0.65020    0.02790    1.000
    H23      H        0.12790    0.69490    0.33170    1.000
    H24      H        0.55100    0.67060    0.11950    1.000
    H25      H        0.43940    0.71360    0.42150    1.000
    H26      H        0.26280    0.71210    0.42350    1.000
    H27      H        0.79900    0.01140    0.34920    1.000
    H28      H        0.89440    0.17660    0.02350    1.000
    H29      H        0.88290    0.00110    0.04280    1.000
    H30      H        0.87530    0.34450    0.10160    1.000
    H31      H        0.82960    0.35030    0.39900    1.000
    H32      H        0.81590    0.18000    0.42660    1.000
    H33      H        0.88040    0.82510    0.94170    1.000
    H34      H        0.86470    0.83280    0.78250    1.000
    H35      H        0.90100    0.53240    0.78370    1.000
    H36      H        0.91840    0.53370    0.93960    1.000
    H37      H        0.80380    0.83200    0.65740    1.000
    H38      H        0.79100    0.82940    0.49590    1.000
    H39      H        0.90910    0.55170    0.47140    1.000
    H40      H        0.93480    0.54980    0.62690    1.000
    C35      C        0.05161    0.67168    0.18473    1.000
    C36      C        0.16702    0.67306    0.18291    1.000
    C37      C        0.25461    0.66078    0.09066    1.000
    C38      C        0.35976    0.66072    0.08984    1.000
    C39      C        0.38429    0.67592    0.17867    1.000
    C40      C        0.29565    0.68906    0.27169    1.000
    C41      C        0.18748    0.68673    0.27029    1.000
    C42      C        0.49134    0.67825    0.18101    1.000
    C43      C        0.51261    0.69114    0.26900    1.000
    C44      C        0.42512    0.70414    0.36031    1.000
    C45      C        0.32093    0.70314    0.36121    1.000
    C46      C        0.62976    0.68814    0.26686    1.000
    C47      C        0.83720    0.87436    0.20933    1.000
    C48      C        0.84009    0.98879    0.19891    1.000
    C49      C        0.81834    0.04516    0.28335    1.000
    C50      C        0.82442    0.15249    0.27338    1.000
    C51      C        0.85234    0.20254    0.17583    1.000
    C52      C        0.87475    0.14379    0.08973    1.000
    C53      C        0.86826    0.03979    0.10128    1.000
    C54      C        0.85782    0.31024    0.16716    1.000
    C55      C        0.83867    0.36590    0.25028    1.000
    C56      C        0.83000    0.31175    0.34396    1.000
    C57      C        0.82240    0.21231    0.36152    1.000
    C58      C        0.84254    0.48078    0.23967    1.000
    C59      C        0.87050    0.76405    0.91455    1.000
    C60      C        0.86140    0.76880    0.82025    1.000
    C61      C        0.84674    0.67778    0.77650    1.000
    C62      C        0.83601    0.67933    0.67412    1.000
    C63      C        0.88202    0.59409    0.81906    1.000
    C64      C        0.89138    0.59560    0.91271    1.000
    C65      C        0.81340    0.76867    0.62577    1.000
    C66      C        0.80460    0.76600    0.52954    1.000
    C67      C        0.87420    0.60601    0.51487    1.000
    C68      C        0.88890    0.60320    0.60802    1.000
    N3       N        0.86601    0.67622    0.97036    1.000
    N4       N        0.81399    0.67992    0.48080    1.000
    O9       O        0.03390    0.66515    0.10177    1.000
    O10      O        0.97740    0.67370    0.27122    1.000
    O11      O        0.70315    0.68544    0.18240    1.000
    O12      O        0.64562    0.68805    0.35140    1.000
    O13      O        0.80801    0.83368    0.29904    1.000
    O14      O        0.86653    0.82726    0.12856    1.000
    O15      O        0.81900    0.52720    0.32141    1.000
    O16      O        0.86879    0.52196    0.15105    1.000
