# CIF file generated by openbabel 3.1.0, see https://openbabel.org
data_I
_chemical_name_common 'image0'
_cell_length_a 12.7832
_cell_length_b 12.7832
_cell_length_c 32.5345
_cell_angle_alpha 90
_cell_angle_beta 90
_cell_angle_gamma 90
_space_group_name_H-M_alt 'P 1'
_space_group_name_Hall 'P 1'
loop_
    _symmetry_equiv_pos_as_xyz
    x,y,z
loop_
    _atom_site_label
    _atom_site_type_symbol
    _atom_site_fract_x
    _atom_site_fract_y
    _atom_site_fract_z
    _atom_site_occupancy
    C1       C        0.56970    0.67500    0.79100    1.000
    C2       C        0.95810    0.25390    0.95121    1.000
    C3       C        0.94420    0.14720    0.93080    1.000
    C4       C        0.96050    0.14800    0.88690    1.000
    H1       H        0.97310    0.07800    0.87750    1.000
    H2       H        0.01980    0.19110    0.88050    1.000
    H3       H        0.89950    0.17560    0.87350    1.000
    C5       C        0.04080    0.08350    0.94530    1.000
    H4       H        0.02200    0.04160    0.96870    1.000
    H5       H        0.09600    0.13070    0.95280    1.000
    H6       H        0.06420    0.03890    0.92340    1.000
    C6       C        0.85870    0.08740    0.94640    1.000
    H7       H        0.79410    0.11780    0.93730    1.000
    H8       H        0.86100    0.08730    0.97590    1.000
    H9       H        0.86370    0.01680    0.93650    1.000
    C7       C        0.48350    0.64990    0.82062    1.000
    C8       C        0.40140    0.58450    0.80989    1.000
    H10      H        0.39830    0.55560    0.78370    1.000
    C9       C        0.32410    0.56260    0.83854    1.000
    H11      H        0.26960    0.51800    0.83140    1.000
    C10      C        0.32620    0.60440    0.87645    1.000
    C11      C        0.40900    0.66780    0.88759    1.000
    H12      H        0.41280    0.69580    0.91390    1.000
    C12      C        0.48600    0.68880    0.85901    1.000
    H13      H        0.54170    0.73140    0.86660    1.000
    C13      C        0.24420    0.57890    0.90672    1.000
    C14      C        0.14080    0.58900    0.95985    1.000
    C15      C        0.12310    0.49610    0.93972    1.000
    C16      C        0.04770    0.42230    0.95430    1.000
    C17      C        0.03060    0.32610    0.93538    1.000
    H14      H        0.06800    0.30920    0.91180    1.000
    C18      C        0.90040    0.28400    0.98532    1.000
    H15      H        0.84950    0.23880    0.99540    1.000
    C19      C        0.91590    0.37890    0.00487    1.000
    C20      C        0.99130    0.45050    0.98981    1.000
    N1       N        0.22020    0.64070    0.93874    1.000
    H16      H        0.24810    0.69980    0.94490    1.000
    N2       N        0.18890    0.49040    0.90642    1.000
    O1       O        0.63820    0.73130    0.80116    1.000
    O2       O        0.56790    0.63760    0.75644    1.000
    H17      H        0.19350    0.44010    0.88900    1.000
    C21      C        0.93030    0.82500    0.79100    1.000
    C22      C        0.54190    0.24610    0.95121    1.000
    C23      C        0.55580    0.35280    0.93080    1.000
    C24      C        0.53950    0.35200    0.88690    1.000
    H18      H        0.52690    0.42200    0.87750    1.000
    H19      H        0.48020    0.30890    0.88050    1.000
    H20      H        0.60050    0.32440    0.87350    1.000
    C25      C        0.45920    0.41650    0.94530    1.000
    H21      H        0.47800    0.45840    0.96870    1.000
    H22      H        0.40400    0.36930    0.95280    1.000
    H23      H        0.43580    0.46110    0.92340    1.000
    C26      C        0.64130    0.41260    0.94640    1.000
    H24      H        0.70590    0.38220    0.93730    1.000
    H25      H        0.63900    0.41270    0.97590    1.000
    H26      H        0.63630    0.48320    0.93650    1.000
    C27      C        0.01650    0.85010    0.82062    1.000
    C28      C        0.09860    0.91550    0.80989    1.000
    H27      H        0.10170    0.94440    0.78370    1.000
    C29      C        0.17590    0.93740    0.83854    1.000
    H28      H        0.23040    0.98200    0.83140    1.000
    C30      C        0.17380    0.89560    0.87645    1.000
    C31      C        0.09100    0.83220    0.88759    1.000
    H29      H        0.08720    0.80420    0.91390    1.000
    C32      C        0.01400    0.81120    0.85901    1.000
    H30      H        0.95830    0.76860    0.86660    1.000
    C33      C        0.25580    0.92110    0.90672    1.000
    C34      C        0.35920    0.91100    0.95985    1.000
    C35      C        0.37690    0.00390    0.93972    1.000
    C36      C        0.45230    0.07770    0.95430    1.000
    C37      C        0.46940    0.17390    0.93538    1.000
    H31      H        0.43200    0.19080    0.91180    1.000
    C38      C        0.59960    0.21600    0.98532    1.000
    H32      H        0.65050    0.26120    0.99540    1.000
    C39      C        0.58410    0.12110    0.00487    1.000
    C40      C        0.50870    0.04950    0.98981    1.000
    N3       N        0.27980    0.85930    0.93874    1.000
    H33      H        0.25190    0.80020    0.94490    1.000
    N4       N        0.31110    0.00960    0.90642    1.000
    O3       O        0.86180    0.76870    0.80116    1.000
    O4       O        0.93210    0.86240    0.75644    1.000
    H34      H        0.30650    0.05990    0.88900    1.000
    C41      C        0.32500    0.06970    0.29100    1.000
    C42      C        0.74610    0.45810    0.45121    1.000
    C43      C        0.85280    0.44420    0.43080    1.000
    C44      C        0.85200    0.46050    0.38690    1.000
    H35      H        0.92200    0.47310    0.37750    1.000
    H36      H        0.80890    0.51980    0.38050    1.000
    H37      H        0.82440    0.39950    0.37350    1.000
    C45      C        0.91650    0.54080    0.44530    1.000
    H38      H        0.95840    0.52200    0.46870    1.000
    H39      H        0.86930    0.59600    0.45280    1.000
    H40      H        0.96110    0.56420    0.42340    1.000
    C46      C        0.91260    0.35870    0.44640    1.000
    H41      H        0.88220    0.29410    0.43730    1.000
    H42      H        0.91270    0.36100    0.47590    1.000
    H43      H        0.98320    0.36370    0.43650    1.000
    C47      C        0.35010    0.98350    0.32062    1.000
    C48      C        0.41550    0.90140    0.30989    1.000
    H44      H        0.44440    0.89830    0.28370    1.000
    C49      C        0.43740    0.82410    0.33854    1.000
    H45      H        0.48200    0.76960    0.33140    1.000
    C50      C        0.39560    0.82620    0.37645    1.000
    C51      C        0.33220    0.90900    0.38759    1.000
    H46      H        0.30420    0.91280    0.41390    1.000
    C52      C        0.31120    0.98600    0.35901    1.000
    H47      H        0.26860    0.04170    0.36660    1.000
    C53      C        0.42110    0.74420    0.40672    1.000
    C54      C        0.41100    0.64080    0.45985    1.000
    C55      C        0.50390    0.62310    0.43972    1.000
    C56      C        0.57770    0.54770    0.45430    1.000
    C57      C        0.67390    0.53060    0.43538    1.000
    H48      H        0.69080    0.56800    0.41180    1.000
    C58      C        0.71600    0.40040    0.48532    1.000
    H49      H        0.76120    0.34950    0.49540    1.000
    C59      C        0.62110    0.41590    0.50487    1.000
    C60      C        0.54950    0.49130    0.48981    1.000
    N5       N        0.35930    0.72020    0.43874    1.000
    H50      H        0.30020    0.74810    0.44490    1.000
    N6       N        0.50960    0.68890    0.40642    1.000
    O5       O        0.26870    0.13820    0.30116    1.000
    O6       O        0.36240    0.06790    0.25644    1.000
    H51      H        0.55990    0.69350    0.38900    1.000
    C61      C        0.17500    0.43030    0.29100    1.000
    C62      C        0.75390    0.04190    0.45121    1.000
    C63      C        0.64720    0.05580    0.43080    1.000
    C64      C        0.64800    0.03950    0.38690    1.000
    H52      H        0.57800    0.02690    0.37750    1.000
    H53      H        0.69110    0.98020    0.38050    1.000
    H54      H        0.67560    0.10050    0.37350    1.000
    C65      C        0.58350    0.95920    0.44530    1.000
    H55      H        0.54160    0.97800    0.46870    1.000
    H56      H        0.63070    0.90400    0.45280    1.000
    H57      H        0.53890    0.93580    0.42340    1.000
    C66      C        0.58740    0.14130    0.44640    1.000
    H58      H        0.61780    0.20590    0.43730    1.000
    H59      H        0.58730    0.13900    0.47590    1.000
    H60      H        0.51680    0.13630    0.43650    1.000
    C67      C        0.14990    0.51650    0.32062    1.000
    C68      C        0.08450    0.59860    0.30989    1.000
    H61      H        0.05560    0.60170    0.28370    1.000
    C69      C        0.06260    0.67590    0.33854    1.000
    H62      H        0.01800    0.73040    0.33140    1.000
    C70      C        0.10440    0.67380    0.37645    1.000
    C71      C        0.16780    0.59100    0.38759    1.000
    H63      H        0.19580    0.58720    0.41390    1.000
    C72      C        0.18880    0.51400    0.35901    1.000
    H64      H        0.23140    0.45830    0.36660    1.000
    C73      C        0.07890    0.75580    0.40672    1.000
    C74      C        0.08900    0.85920    0.45985    1.000
    C75      C        0.99610    0.87690    0.43972    1.000
    C76      C        0.92230    0.95230    0.45430    1.000
    C77      C        0.82610    0.96940    0.43538    1.000
    H65      H        0.80920    0.93200    0.41180    1.000
    C78      C        0.78400    0.09960    0.48532    1.000
    H66      H        0.73880    0.15050    0.49540    1.000
    C79      C        0.87890    0.08410    0.50487    1.000
    C80      C        0.95050    0.00870    0.48981    1.000
    N7       N        0.14070    0.77980    0.43874    1.000
    H67      H        0.19980    0.75190    0.44490    1.000
    N8       N        0.99040    0.81110    0.40642    1.000
    O7       O        0.23130    0.36180    0.30116    1.000
    O8       O        0.13760    0.43210    0.25644    1.000
    H68      H        0.94010    0.80650    0.38900    1.000
    C81      C        0.43030    0.32500    0.20900    1.000
    C82      C        0.04190    0.74610    0.04879    1.000
    C83      C        0.05580    0.85280    0.06920    1.000
    C84      C        0.03950    0.85200    0.11310    1.000
    H69      H        0.02690    0.92200    0.12250    1.000
    H70      H        0.98020    0.80890    0.11950    1.000
    H71      H        0.10050    0.82440    0.12650    1.000
    C85      C        0.95920    0.91650    0.05470    1.000
    H72      H        0.97800    0.95840    0.03130    1.000
    H73      H        0.90400    0.86930    0.04720    1.000
    H74      H        0.93580    0.96110    0.07660    1.000
    C86      C        0.14130    0.91260    0.05360    1.000
    H75      H        0.20590    0.88220    0.06270    1.000
    H76      H        0.13900    0.91270    0.02410    1.000
    H77      H        0.13630    0.98320    0.06350    1.000
    C87      C        0.51650    0.35010    0.17938    1.000
    C88      C        0.59860    0.41550    0.19011    1.000
    H78      H        0.60170    0.44440    0.21630    1.000
    C89      C        0.67590    0.43740    0.16146    1.000
    H79      H        0.73040    0.48200    0.16860    1.000
    C90      C        0.67380    0.39560    0.12355    1.000
    C91      C        0.59100    0.33220    0.11241    1.000
    H80      H        0.58720    0.30420    0.08610    1.000
    C92      C        0.51400    0.31120    0.14099    1.000
    H81      H        0.45830    0.26860    0.13340    1.000
    C93      C        0.75580    0.42110    0.09328    1.000
    C94      C        0.85920    0.41100    0.04015    1.000
    C95      C        0.87690    0.50390    0.06028    1.000
    C96      C        0.95230    0.57770    0.04570    1.000
    C97      C        0.96940    0.67390    0.06462    1.000
    H82      H        0.93200    0.69080    0.08820    1.000
    C98      C        0.09960    0.71600    0.01468    1.000
    H83      H        0.15050    0.76120    0.00460    1.000
    C99      C        0.08410    0.62110    0.99513    1.000
    C100     C        0.00870    0.54950    0.01019    1.000
    N9       N        0.77980    0.35930    0.06126    1.000
    H84      H        0.75190    0.30020    0.05510    1.000
    N10      N        0.81110    0.50960    0.09358    1.000
    O9       O        0.36180    0.26870    0.19884    1.000
    O10      O        0.43210    0.36240    0.24356    1.000
    H85      H        0.80650    0.55990    0.11100    1.000
    C101     C        0.06970    0.17500    0.20900    1.000
    C102     C        0.45810    0.75390    0.04879    1.000
    C103     C        0.44420    0.64720    0.06920    1.000
    C104     C        0.46050    0.64800    0.11310    1.000
    H86      H        0.47310    0.57800    0.12250    1.000
    H87      H        0.51980    0.69110    0.11950    1.000
    H88      H        0.39950    0.67560    0.12650    1.000
    C105     C        0.54080    0.58350    0.05470    1.000
    H89      H        0.52200    0.54160    0.03130    1.000
    H90      H        0.59600    0.63070    0.04720    1.000
    H91      H        0.56420    0.53890    0.07660    1.000
    C106     C        0.35870    0.58740    0.05360    1.000
    H92      H        0.29410    0.61780    0.06270    1.000
    H93      H        0.36100    0.58730    0.02410    1.000
    H94      H        0.36370    0.51680    0.06350    1.000
    C107     C        0.98350    0.14990    0.17938    1.000
    C108     C        0.90140    0.08450    0.19011    1.000
    H95      H        0.89830    0.05560    0.21630    1.000
    C109     C        0.82410    0.06260    0.16146    1.000
    H96      H        0.76960    0.01800    0.16860    1.000
    C110     C        0.82620    0.10440    0.12355    1.000
    C111     C        0.90900    0.16780    0.11241    1.000
    H97      H        0.91280    0.19580    0.08610    1.000
    C112     C        0.98600    0.18880    0.14099    1.000
    H98      H        0.04170    0.23140    0.13340    1.000
    C113     C        0.74420    0.07890    0.09328    1.000
    C114     C        0.64080    0.08900    0.04015    1.000
    C115     C        0.62310    0.99610    0.06028    1.000
    C116     C        0.54770    0.92230    0.04570    1.000
    C117     C        0.53060    0.82610    0.06462    1.000
    H99      H        0.56800    0.80920    0.08820    1.000
    C118     C        0.40040    0.78400    0.01468    1.000
    H100     H        0.34950    0.73880    0.00460    1.000
    C119     C        0.41590    0.87890    0.99513    1.000
    C120     C        0.49130    0.95050    0.01019    1.000
    N11      N        0.72020    0.14070    0.06126    1.000
    H101     H        0.74810    0.19980    0.05510    1.000
    N12      N        0.68890    0.99040    0.09358    1.000
    O11      O        0.13820    0.23130    0.19884    1.000
    O12      O        0.06790    0.13760    0.24356    1.000
    H102     H        0.69350    0.94010    0.11100    1.000
    C121     C        0.67500    0.93030    0.70900    1.000
    C122     C        0.25390    0.54190    0.54879    1.000
    C123     C        0.14720    0.55580    0.56920    1.000
    C124     C        0.14800    0.53950    0.61310    1.000
    H103     H        0.07800    0.52690    0.62250    1.000
    H104     H        0.19110    0.48020    0.61950    1.000
    H105     H        0.17560    0.60050    0.62650    1.000
    C125     C        0.08350    0.45920    0.55470    1.000
    H106     H        0.04160    0.47800    0.53130    1.000
    H107     H        0.13070    0.40400    0.54720    1.000
    H108     H        0.03890    0.43580    0.57660    1.000
    C126     C        0.08740    0.64130    0.55360    1.000
    H109     H        0.11780    0.70590    0.56270    1.000
    H110     H        0.08730    0.63900    0.52410    1.000
    H111     H        0.01680    0.63630    0.56350    1.000
    C127     C        0.64990    0.01650    0.67938    1.000
    C128     C        0.58450    0.09860    0.69011    1.000
    H112     H        0.55560    0.10170    0.71630    1.000
    C129     C        0.56260    0.17590    0.66146    1.000
    H113     H        0.51800    0.23040    0.66860    1.000
    C130     C        0.60440    0.17380    0.62355    1.000
    C131     C        0.66780    0.09100    0.61241    1.000
    H114     H        0.69580    0.08720    0.58610    1.000
    C132     C        0.68880    0.01400    0.64099    1.000
    H115     H        0.73140    0.95830    0.63340    1.000
    C133     C        0.57890    0.25580    0.59328    1.000
    C134     C        0.58900    0.35920    0.54015    1.000
    C135     C        0.49610    0.37690    0.56028    1.000
    C136     C        0.42230    0.45230    0.54570    1.000
    C137     C        0.32610    0.46940    0.56462    1.000
    H116     H        0.30920    0.43200    0.58820    1.000
    C138     C        0.28400    0.59960    0.51468    1.000
    H117     H        0.23880    0.65050    0.50460    1.000
    C139     C        0.37890    0.58410    0.49513    1.000
    C140     C        0.45050    0.50870    0.51019    1.000
    N13      N        0.64070    0.27980    0.56126    1.000
    H118     H        0.69980    0.25190    0.55510    1.000
    N14      N        0.49040    0.31110    0.59358    1.000
    O13      O        0.73130    0.86180    0.69884    1.000
    O14      O        0.63760    0.93210    0.74356    1.000
    H119     H        0.44010    0.30650    0.61100    1.000
    C141     C        0.82500    0.56970    0.70900    1.000
    C142     C        0.24610    0.95810    0.54879    1.000
    C143     C        0.35280    0.94420    0.56920    1.000
    C144     C        0.35200    0.96050    0.61310    1.000
    H120     H        0.42200    0.97310    0.62250    1.000
    H121     H        0.30890    0.01980    0.61950    1.000
    H122     H        0.32440    0.89950    0.62650    1.000
    C145     C        0.41650    0.04080    0.55470    1.000
    H123     H        0.45840    0.02200    0.53130    1.000
    H124     H        0.36930    0.09600    0.54720    1.000
    H125     H        0.46110    0.06420    0.57660    1.000
    C146     C        0.41260    0.85870    0.55360    1.000
    H126     H        0.38220    0.79410    0.56270    1.000
    H127     H        0.41270    0.86100    0.52410    1.000
    H128     H        0.48320    0.86370    0.56350    1.000
    C147     C        0.85010    0.48350    0.67938    1.000
    C148     C        0.91550    0.40140    0.69011    1.000
    H129     H        0.94440    0.39830    0.71630    1.000
    C149     C        0.93740    0.32410    0.66146    1.000
    H130     H        0.98200    0.26960    0.66860    1.000
    C150     C        0.89560    0.32620    0.62355    1.000
    C151     C        0.83220    0.40900    0.61241    1.000
    H131     H        0.80420    0.41280    0.58610    1.000
    C152     C        0.81120    0.48600    0.64099    1.000
    H132     H        0.76860    0.54170    0.63340    1.000
    C153     C        0.92110    0.24420    0.59328    1.000
    C154     C        0.91100    0.14080    0.54015    1.000
    C155     C        0.00390    0.12310    0.56028    1.000
    C156     C        0.07770    0.04770    0.54570    1.000
    C157     C        0.17390    0.03060    0.56462    1.000
    H133     H        0.19080    0.06800    0.58820    1.000
    C158     C        0.21600    0.90040    0.51468    1.000
    H134     H        0.26120    0.84950    0.50460    1.000
    C159     C        0.12110    0.91590    0.49513    1.000
    C160     C        0.04950    0.99130    0.51019    1.000
    N15      N        0.85930    0.22020    0.56126    1.000
    H135     H        0.80020    0.24810    0.55510    1.000
    N16      N        0.00960    0.18890    0.59358    1.000
    O15      O        0.76870    0.63820    0.69884    1.000
    O16      O        0.86240    0.56790    0.74356    1.000
    H136     H        0.05990    0.19350    0.61100    1.000
    Cd1      Cd       0.75000    0.75000    0.75000    1.000
    Cd2      Cd       0.25000    0.25000    0.25000    1.000
