# CIF file generated by openbabel 3.1.0, see https://openbabel.org
data_I
_chemical_name_common 'image0'
_cell_length_a 10.2416
_cell_length_b 24.956
_cell_length_c 11.4453
_cell_angle_alpha 90
_cell_angle_beta 91.106
_cell_angle_gamma 90
_space_group_name_H-M_alt 'P 1'
_space_group_name_Hall 'P 1'
loop_
    _symmetry_equiv_pos_as_xyz
    x,y,z
loop_
    _atom_site_label
    _atom_site_type_symbol
    _atom_site_fract_x
    _atom_site_fract_y
    _atom_site_fract_z
    _atom_site_occupancy
    Co1      Co       0.54913    0.86145    0.45244    1.000
    Co2      Co       0.04984    0.94129    0.43574    1.000
    O1       O        0.73640    0.89370    0.44750    1.000
    O2       O        0.23620    0.90880    0.44100    1.000
    N1       N        0.53790    0.85300    0.26250    1.000
    N2       N        0.54680    0.85740    0.64170    1.000
    O3       O        0.86050    0.96660    0.43130    1.000
    N3       N        0.05000    0.94480    0.62260    1.000
    O4       O        0.36070    0.83570    0.45160    1.000
    C1       C        0.25250    0.85950    0.44380    1.000
    C2       C        0.94410    0.96090    0.68460    1.000
    H1       H        0.86730    0.97110    0.64230    1.000
    C3       C        0.43040    0.85510    0.20070    1.000
    H2       H        0.34990    0.85770    0.24010    1.000
    N4       N        0.04890    0.94690    0.24600    1.000
    C4       C        0.15950    0.93490    0.69580    1.000
    H3       H        0.23820    0.92520    0.65850    1.000
    C5       C        0.65030    0.87090    0.71370    1.000
    H4       H        0.72720    0.88320    0.67700    1.000
    O5       O        0.01760    0.85480    0.42230    1.000
    H5       H        0.96000    0.83500    0.38200    1.000
    N5       N        0.87380    0.52070    0.56050    1.000
    O6       O        0.51800    0.94790    0.45110    1.000
    H6       H        0.46700    0.95700    0.51000    1.000
    C6       C        0.54690    0.84970    0.89120    1.000
    N6       N        0.63100    0.78270    0.46560    1.000
    C7       C        0.05190    0.95110    0.00290    1.000
    C8       C        0.16360    0.93760    0.81400    1.000
    H7       H        0.24240    0.93030    0.85620    1.000
    C9       C        0.54430    0.84860    0.01750    1.000
    C10      C        0.65340    0.86860    0.83010    1.000
    H8       H        0.72950    0.88000    0.87180    1.000
    C11      C        0.75070    0.94270    0.43790    1.000
    C12      C        0.42810    0.85380    0.08080    1.000
    H9       H        0.34690    0.85650    0.03970    1.000
    C13      C        0.13300    0.82300    0.43800    1.000
    H10      H        0.14110    0.79900    0.36850    1.000
    C14      C        0.94240    0.96340    0.80550    1.000
    H11      H        0.86460    0.97370    0.84340    1.000
    C15      C        0.65210    0.84610    0.20600    1.000
    H12      H        0.73070    0.84300    0.25080    1.000
    C16      C        0.74980    0.53080    0.54480    1.000
    H13      H        0.69150    0.50120    0.54490    1.000
    C17      C        0.05290    0.95110    0.87130    1.000
    C18      C        0.15860    0.95450    0.18790    1.000
    H14      H        0.23780    0.95800    0.23190    1.000
    C19      C        0.95000    0.56330    0.56900    1.000
    H15      H        0.03930    0.55830    0.59070    1.000
    C20      C        0.93970    0.94210    0.18420    1.000
    H16      H        0.86060    0.93670    0.22450    1.000
    C21      C        0.16420    0.95770    0.07120    1.000
    H17      H        0.24530    0.96440    0.03510    1.000
    C22      C        0.65780    0.84350    0.08840    1.000
    H18      H        0.73980    0.83800    0.05280    1.000
    C23      C        0.44560    0.83670    0.70160    1.000
    H19      H        0.37340    0.82340    0.65700    1.000
    C24      C        0.77620    0.62450    0.53020    1.000
    C25      C        0.72500    0.67960    0.50830    1.000
    C26      C        0.93450    0.94440    0.06530    1.000
    H20      H        0.85310    0.94150    0.02460    1.000
    C27      C        0.43820    0.83320    0.82180    1.000
    H21      H        0.36150    0.82000    0.85720    1.000
    C28      C        0.63120    0.97970    0.43090    1.000
    H22      H        0.63920    0.00810    0.49220    1.000
    C29      C        0.90570    0.61440    0.54900    1.000
    H23      H        0.96620    0.64320    0.54840    1.000
    C30      C        0.80540    0.72340    0.52180    1.000
    H24      H        0.89410    0.71900    0.54570    1.000
    C31      C        0.69710    0.58040    0.52820    1.000
    H25      H        0.60570    0.58430    0.51540    1.000
    C32      C        0.59910    0.68800    0.47090    1.000
    H26      H        0.54110    0.65860    0.46070    1.000
    C33      C        0.55110    0.98400    0.21730    1.000
    H27      H        0.49430    0.95470    0.23110    1.000
    C34      C        0.62490    0.00560    0.31010    1.000
    C35      C        0.06460    0.80590    0.64730    1.000
    H28      H        0.01410    0.83790    0.64730    1.000
    C36      C        0.19540    0.73860    0.54510    1.000
    H29      H        0.23350    0.72470    0.47640    1.000
    C37      C        0.12830    0.78810    0.54630    1.000
    C38      C        0.20200    0.71100    0.65400    1.000
    H30      H        0.24840    0.67800    0.65710    1.000
    C39      C        0.70510    0.04970    0.28730    1.000
    H31      H        0.75460    0.06580    0.34900    1.000
    C40      C        0.71220    0.06950    0.17700    1.000
    H32      H        0.76570    0.09990    0.16330    1.000
    C41      C        0.64380    0.04670    0.08380    1.000
    H33      H        0.65440    0.05950    0.00640    1.000
    C42      C        0.55960    0.00470    0.10680    1.000
    H34      H        0.50720    0.99000    0.04530    1.000
    C43      C        0.07900    0.77410    0.74820    1.000
    H35      H        0.03840    0.78610    0.81720    1.000
    C44      C        0.75390    0.77480    0.49960    1.000
    H36      H        0.80950    0.80500    0.50940    1.000
    C45      C        0.55630    0.74040    0.44770    1.000
    H37      H        0.47010    0.74550    0.41780    1.000
    C46      C        0.14500    0.72920    0.75400    1.000
    H38      H        0.15400    0.71000    0.82550    1.000
    Co3      Co       0.45087    0.36145    0.54756    1.000
    Co4      Co       0.95016    0.44129    0.56426    1.000
    O7       O        0.26360    0.39370    0.55250    1.000
    O8       O        0.76380    0.40880    0.55900    1.000
    N7       N        0.46210    0.35300    0.73750    1.000
    N8       N        0.45320    0.35740    0.35830    1.000
    O9       O        0.13950    0.46660    0.56870    1.000
    N9       N        0.95000    0.44480    0.37740    1.000
    O10      O        0.63930    0.33570    0.54840    1.000
    C47      C        0.74750    0.35950    0.55620    1.000
    C48      C        0.05590    0.46090    0.31540    1.000
    H39      H        0.13270    0.47110    0.35770    1.000
    C49      C        0.56960    0.35510    0.79930    1.000
    H40      H        0.65010    0.35770    0.75990    1.000
    N10      N        0.95110    0.44690    0.75400    1.000
    C50      C        0.84050    0.43490    0.30420    1.000
    H41      H        0.76180    0.42520    0.34150    1.000
    C51      C        0.34970    0.37090    0.28630    1.000
    H42      H        0.27280    0.38320    0.32300    1.000
    O11      O        0.98240    0.35480    0.57770    1.000
    H43      H        0.04000    0.33500    0.61800    1.000
    N11      N        0.12620    0.02070    0.43950    1.000
    O12      O        0.48200    0.44790    0.54890    1.000
    H44      H        0.53300    0.45700    0.49000    1.000
    C52      C        0.45310    0.34970    0.10880    1.000
    N12      N        0.36900    0.28270    0.53440    1.000
    C53      C        0.94810    0.45110    0.99710    1.000
    C54      C        0.83640    0.43760    0.18600    1.000
    H45      H        0.75760    0.43030    0.14380    1.000
    C55      C        0.45570    0.34860    0.98250    1.000
    C56      C        0.34660    0.36860    0.16990    1.000
    H46      H        0.27050    0.38000    0.12820    1.000
    C57      C        0.24930    0.44270    0.56210    1.000
    C58      C        0.57190    0.35380    0.91920    1.000
    H47      H        0.65310    0.35650    0.96030    1.000
    C59      C        0.86700    0.32300    0.56200    1.000
    H48      H        0.85890    0.29900    0.63150    1.000
    C60      C        0.05760    0.46340    0.19450    1.000
    H49      H        0.13540    0.47370    0.15660    1.000
    C61      C        0.34790    0.34610    0.79400    1.000
    H50      H        0.26930    0.34300    0.74920    1.000
    C62      C        0.25020    0.03080    0.45520    1.000
    H51      H        0.30850    0.00120    0.45510    1.000
    C63      C        0.94710    0.45110    0.12870    1.000
    C64      C        0.84140    0.45450    0.81210    1.000
    H52      H        0.76220    0.45800    0.76810    1.000
    C65      C        0.05000    0.06330    0.43100    1.000
    H53      H        0.96070    0.05830    0.40930    1.000
    C66      C        0.06030    0.44210    0.81580    1.000
    H54      H        0.13940    0.43670    0.77550    1.000
    C67      C        0.83580    0.45770    0.92880    1.000
    H55      H        0.75470    0.46440    0.96490    1.000
    C68      C        0.34220    0.34350    0.91160    1.000
    H56      H        0.26020    0.33800    0.94720    1.000
    C69      C        0.55440    0.33670    0.29840    1.000
    H57      H        0.62660    0.32340    0.34300    1.000
    C70      C        0.22380    0.12450    0.46980    1.000
    C71      C        0.27500    0.17960    0.49170    1.000
    C72      C        0.06550    0.44440    0.93470    1.000
    H58      H        0.14690    0.44150    0.97540    1.000
    C73      C        0.56180    0.33320    0.17820    1.000
    H59      H        0.63850    0.32000    0.14280    1.000
    C74      C        0.36880    0.47970    0.56910    1.000
    H60      H        0.36080    0.50810    0.50780    1.000
    C75      C        0.09430    0.11440    0.45100    1.000
    H61      H        0.03380    0.14320    0.45160    1.000
    C76      C        0.19460    0.22340    0.47820    1.000
    H62      H        0.10590    0.21900    0.45430    1.000
    C77      C        0.30290    0.08040    0.47180    1.000
    H63      H        0.39430    0.08430    0.48460    1.000
    C78      C        0.40090    0.18800    0.52910    1.000
    H64      H        0.45890    0.15860    0.53930    1.000
    C79      C        0.44890    0.48400    0.78270    1.000
    H65      H        0.50570    0.45470    0.76890    1.000
    C80      C        0.37510    0.50560    0.68990    1.000
    C81      C        0.93540    0.30590    0.35270    1.000
    H66      H        0.98590    0.33790    0.35270    1.000
    C82      C        0.80460    0.23860    0.45490    1.000
    H67      H        0.76650    0.22470    0.52360    1.000
    C83      C        0.87170    0.28810    0.45370    1.000
    C84      C        0.79800    0.21100    0.34600    1.000
    H68      H        0.75160    0.17800    0.34290    1.000
    C85      C        0.29490    0.54970    0.71270    1.000
    H69      H        0.24540    0.56580    0.65100    1.000
    C86      C        0.28780    0.56950    0.82300    1.000
    H70      H        0.23430    0.59990    0.83670    1.000
    C87      C        0.35620    0.54670    0.91620    1.000
    H71      H        0.34560    0.55950    0.99360    1.000
    C88      C        0.44040    0.50470    0.89320    1.000
    H72      H        0.49280    0.49000    0.95470    1.000
    C89      C        0.92100    0.27410    0.25180    1.000
    H73      H        0.96160    0.28610    0.18280    1.000
    C90      C        0.24610    0.27480    0.50040    1.000
    H74      H        0.19050    0.30500    0.49060    1.000
    C91      C        0.44370    0.24040    0.55230    1.000
    H75      H        0.52990    0.24550    0.58220    1.000
    C92      C        0.85500    0.22920    0.24600    1.000
    H76      H        0.84600    0.21000    0.17450    1.000
