# CIF file generated by openbabel 3.1.0, see https://openbabel.org
data_I
_chemical_name_common 'CEZMUR_charged'
_cell_length_a 7.9674
_cell_length_b 9.7304
_cell_length_c 21.296
_cell_angle_alpha 90
_cell_angle_beta 90
_cell_angle_gamma 114.168
_space_group_name_H-M_alt 'P 1'
_space_group_name_Hall 'P 1'
loop_
    _symmetry_equiv_pos_as_xyz
    x,y,z
loop_
    _atom_site_label
    _atom_site_type_symbol
    _atom_site_fract_x
    _atom_site_fract_y
    _atom_site_fract_z
    _atom_site_occupancy
    Na1      Na       0.11310    0.00000    0.50000    1.000
    Na2      Na       0.88690    0.00000    0.00000    1.000
    U1       U        0.54105    0.14324    0.38191    1.000
    U2       U        0.45895    0.85676    0.88191    1.000
    U3       U        0.60219    0.14324    0.11809    1.000
    U4       U        0.39781    0.85676    0.61809    1.000
    H1       H        0.01780    0.33640    0.45890    1.000
    H2       H        0.01780    0.60140    0.45240    1.000
    H3       H        0.14970    0.55700    0.28230    1.000
    H4       H        0.98220    0.66360    0.95890    1.000
    H5       H        0.98220    0.39860    0.95240    1.000
    H6       H        0.85030    0.44300    0.78230    1.000
    H7       H        0.31860    0.33640    0.04110    1.000
    H8       H        0.58360    0.60140    0.04760    1.000
    H9       H        0.40730    0.55700    0.21770    1.000
    H10      H        0.68140    0.66360    0.54110    1.000
    H11      H        0.41640    0.39860    0.54760    1.000
    H12      H        0.59270    0.44300    0.71770    1.000
    C1       C        0.36890    0.33920    0.41310    1.000
    C2       C        0.27950    0.44380    0.42510    1.000
    C3       C        0.04440    0.32660    0.27710    1.000
    C4       C        0.27580    0.66700    0.42270    1.000
    C5       C        0.36300    0.82820    0.41160    1.000
    C6       C        0.11310    0.42500    0.44560    1.000
    C7       C        0.11490    0.57580    0.44230    1.000
    C8       C        0.87660    0.25760    0.31320    1.000
    C9       C        0.16360    0.47220    0.26760    1.000
    C10      C        0.63110    0.66080    0.91310    1.000
    C11      C        0.72050    0.55620    0.92510    1.000
    C12      C        0.95560    0.67340    0.77710    1.000
    C13      C        0.72420    0.33300    0.92270    1.000
    C14      C        0.63700    0.17180    0.91160    1.000
    C15      C        0.88690    0.57500    0.94560    1.000
    C16      C        0.88510    0.42420    0.94230    1.000
    C17      C        0.12340    0.74240    0.81320    1.000
    C18      C        0.83640    0.52780    0.76760    1.000
    C19      C        0.97030    0.33920    0.08690    1.000
    C20      C        0.16430    0.44380    0.07490    1.000
    C21      C        0.28220    0.32660    0.22290    1.000
    C22      C        0.39120    0.66700    0.07730    1.000
    C23      C        0.46520    0.82820    0.08840    1.000
    C24      C        0.31190    0.42500    0.05440    1.000
    C25      C        0.46090    0.57580    0.05770    1.000
    C26      C        0.38100    0.25760    0.18680    1.000
    C27      C        0.30860    0.47220    0.23240    1.000
    C28      C        0.02970    0.66080    0.58690    1.000
    C29      C        0.83570    0.55620    0.57490    1.000
    C30      C        0.71780    0.67340    0.72290    1.000
    C31      C        0.60880    0.33300    0.57730    1.000
    C32      C        0.53480    0.17180    0.58840    1.000
    C33      C        0.68810    0.57500    0.55440    1.000
    C34      C        0.53910    0.42420    0.55770    1.000
    C35      C        0.61900    0.74240    0.68680    1.000
    C36      C        0.69140    0.52780    0.73240    1.000
    O1       O        0.52310    0.38720    0.38830    1.000
    O2       O        0.28890    0.20060    0.42960    1.000
    O3       O        0.52060    0.88440    0.38390    1.000
    O4       O        0.80940    0.12240    0.32860    1.000
    O5       O        0.28330    0.91100    0.42530    1.000
    O6       O        0.80080    0.34460    0.33090    1.000
    O7       O        0.38460    0.58980    0.41010    1.000
    O8       O        0.41910    0.10740    0.31030    1.000
    O9       O        0.66160    0.17920    0.45380    1.000
    O10      O        0.97650    0.11920    0.56150    1.000
    O11      O        0.47690    0.61280    0.88830    1.000
    O12      O        0.71110    0.79940    0.92960    1.000
    O13      O        0.47940    0.11560    0.88390    1.000
    O14      O        0.19060    0.87760    0.82860    1.000
    O15      O        0.71670    0.08900    0.92530    1.000
    O16      O        0.19920    0.65540    0.83090    1.000
    O17      O        0.61540    0.41020    0.91010    1.000
    O18      O        0.58090    0.89260    0.81030    1.000
    O19      O        0.33840    0.82080    0.95380    1.000
    O20      O        0.02350    0.88080    0.06150    1.000
    O21      O        0.86410    0.38720    0.11170    1.000
    O22      O        0.91170    0.20060    0.07040    1.000
    O23      O        0.36380    0.88440    0.11610    1.000
    O24      O        0.31300    0.12240    0.17140    1.000
    O25      O        0.62770    0.91100    0.07470    1.000
    O26      O        0.54380    0.34460    0.16910    1.000
    O27      O        0.20520    0.58980    0.08990    1.000
    O28      O        0.68830    0.10740    0.18970    1.000
    O29      O        0.51760    0.17920    0.04620    1.000
    O30      O        0.14270    0.11920    0.93850    1.000
    O31      O        0.13590    0.61280    0.61170    1.000
    O32      O        0.08830    0.79940    0.57040    1.000
    O33      O        0.63620    0.11560    0.61610    1.000
    O34      O        0.68700    0.87760    0.67140    1.000
    O35      O        0.37230    0.08900    0.57470    1.000
    O36      O        0.45620    0.65540    0.66910    1.000
    O37      O        0.79480    0.41020    0.58990    1.000
    O38      O        0.31170    0.89260    0.68970    1.000
    O39      O        0.48240    0.82080    0.54620    1.000
    O40      O        0.85730    0.88080    0.43850    1.000
    O41      O        0.11620    0.23240    0.25000    1.000
    O42      O        0.88380    0.76760    0.75000    1.000
