# CIF file generated by openbabel 3.1.0, see https://openbabel.org
data_I
_chemical_name_common 'image0'
_cell_length_a 11.36
_cell_length_b 11.799
_cell_length_c 16.35
_cell_angle_alpha 74.017
_cell_angle_beta 82.914
_cell_angle_gamma 63.634
_space_group_name_H-M_alt 'P 1'
_space_group_name_Hall 'P 1'
loop_
    _symmetry_equiv_pos_as_xyz
    x,y,z
loop_
    _atom_site_label
    _atom_site_type_symbol
    _atom_site_fract_x
    _atom_site_fract_y
    _atom_site_fract_z
    _atom_site_occupancy
    C1       C        0.07360    0.71100    0.39680    1.000
    C2       C        0.94560    0.70020    0.39870    1.000
    C3       C        0.94850    0.58210    0.40250    1.000
    H1       H        0.02880    0.50930    0.40490    1.000
    C4       C        0.83100    0.56970    0.40300    1.000
    C5       C        0.71330    0.67900    0.40100    1.000
    H2       H        0.63490    0.67210    0.40080    1.000
    C6       C        0.70950    0.80080    0.39930    1.000
    C7       C        0.82670    0.80900    0.39870    1.000
    H3       H        0.82630    0.88810    0.39830    1.000
    C8       C        0.82820    0.44240    0.40770    1.000
    C9       C        0.57700    0.91220    0.40060    1.000
    C10      C        0.47420    0.88240    0.44110    1.000
    H4       H        0.49120    0.79590    0.46690    1.000
    C11      C        0.34690    0.98020    0.44340    1.000
    C12      C        0.32260    0.10870    0.40500    1.000
    H5       H        0.23740    0.17430    0.40340    1.000
    C13      C        0.42340    0.13990    0.36940    1.000
    C14      C        0.55000    0.04150    0.36600    1.000
    H6       H        0.61700    0.06370    0.34000    1.000
    C15      C        0.40170    0.28080    0.33450    1.000
    C16      C        0.24240    0.93960    0.48410    1.000
    C17      C        0.14990    0.83170    0.71350    1.000
    C18      C        0.16140    0.88220    0.78620    1.000
    C19      C        0.26290    0.80020    0.84310    1.000
    H7       H        0.32150    0.72000    0.83310    1.000
    C20      C        0.28040    0.83130    0.91220    1.000
    C21      C        0.19020    0.95520    0.92810    1.000
    H8       H        0.19690    0.97750    0.97710    1.000
    C22      C        0.09350    0.03980    0.86870    1.000
    C23      C        0.07690    0.00280    0.79880    1.000
    H9       H        0.00870    0.05960    0.76080    1.000
    C24      C        0.99790    0.17050    0.88190    1.000
    C25      C        0.39440    0.74050    0.97090    1.000
    C26      C        0.51190    0.66450    0.93590    1.000
    H10      H        0.51760    0.67560    0.87720    1.000
    C27      C        0.62050    0.57290    0.98530    1.000
    C28      C        0.61010    0.55470    0.07390    1.000
    H11      H        0.68280    0.49700    0.10810    1.000
    C29      C        0.49300    0.62180    0.11000    1.000
    C30      C        0.38220    0.71800    0.05860    1.000
    H12      H        0.30350    0.76460    0.08360    1.000
    C31      C        0.74150    0.48950    0.94190    1.000
    C32      C        0.47610    0.58790    0.20480    1.000
    Zn1      Zn       0.07262    0.83244    0.54857    1.000
    Zn2      Zn       0.39331    0.61703    0.64010    1.000
    Zn3      Zn       0.20368    0.55884    0.24711    1.000
    O1       O        0.16830    0.63210    0.36300    1.000
    O2       O        0.91750    0.24610    0.82340    1.000
    O3       O        0.93660    0.34910    0.39780    1.000
    O4       O        0.72240    0.43590    0.42290    1.000
    O5       O        0.50290    0.30110    0.31860    1.000
    O6       O        0.28570    0.36400    0.32480    1.000
    O7       O        0.12430    0.02010    0.47160    1.000
    O8       O        0.27320    0.82440    0.52830    1.000
    O9       O        0.07950    0.79580    0.42630    1.000
    O10      O        0.00830    0.20170    0.94730    1.000
    O11      O        0.05330    0.90630    0.66120    1.000
    O12      O        0.22950    0.72120    0.70860    1.000
    O13      O        0.57960    0.53970    0.24950    1.000
    H13      H        0.64230    0.57230    0.23420    1.000
    O14      O        0.36820    0.60360    0.23600    1.000
    O15      O        0.83440    0.40200    0.98930    1.000
    O16      O        0.73680    0.51490    0.86370    1.000
    C33      C        0.92640    0.28900    0.60320    1.000
    C34      C        0.05440    0.29980    0.60130    1.000
    C35      C        0.05150    0.41790    0.59750    1.000
    H14      H        0.97120    0.49070    0.59510    1.000
    C36      C        0.16900    0.43030    0.59700    1.000
    C37      C        0.28670    0.32100    0.59900    1.000
    H15      H        0.36510    0.32790    0.59920    1.000
    C38      C        0.29050    0.19920    0.60070    1.000
    C39      C        0.17330    0.19100    0.60130    1.000
    H16      H        0.17370    0.11190    0.60170    1.000
    C40      C        0.17180    0.55760    0.59230    1.000
    C41      C        0.42300    0.08780    0.59940    1.000
    C42      C        0.52580    0.11760    0.55890    1.000
    H17      H        0.50880    0.20410    0.53310    1.000
    C43      C        0.65310    0.01980    0.55660    1.000
    C44      C        0.67740    0.89130    0.59500    1.000
    H18      H        0.76260    0.82570    0.59660    1.000
    C45      C        0.57660    0.86010    0.63060    1.000
    C46      C        0.45000    0.95850    0.63400    1.000
    H19      H        0.38300    0.93630    0.66000    1.000
    C47      C        0.59830    0.71920    0.66550    1.000
    C48      C        0.75760    0.06040    0.51590    1.000
    C49      C        0.85010    0.16830    0.28650    1.000
    C50      C        0.83860    0.11780    0.21380    1.000
    C51      C        0.73710    0.19980    0.15690    1.000
    H20      H        0.67850    0.28000    0.16690    1.000
    C52      C        0.71960    0.16870    0.08780    1.000
    C53      C        0.80980    0.04480    0.07190    1.000
    H21      H        0.80310    0.02250    0.02290    1.000
    C54      C        0.90650    0.96020    0.13130    1.000
    C55      C        0.92310    0.99720    0.20120    1.000
    H22      H        0.99130    0.94040    0.23920    1.000
    C56      C        0.00210    0.82950    0.11810    1.000
    C57      C        0.60560    0.25950    0.02910    1.000
    C58      C        0.48810    0.33550    0.06410    1.000
    H23      H        0.48240    0.32440    0.12280    1.000
    C59      C        0.37950    0.42710    0.01470    1.000
    C60      C        0.38990    0.44530    0.92610    1.000
    H24      H        0.31720    0.50300    0.89190    1.000
    C61      C        0.50700    0.37820    0.89000    1.000
    C62      C        0.61780    0.28200    0.94140    1.000
    H25      H        0.69650    0.23540    0.91640    1.000
    C63      C        0.25850    0.51050    0.05810    1.000
    C64      C        0.52390    0.41210    0.79520    1.000
    Zn4      Zn       0.92738    0.16756    0.45143    1.000
    Zn5      Zn       0.60669    0.38297    0.35990    1.000
    Zn6      Zn       0.79632    0.44116    0.75289    1.000
    O17      O        0.83170    0.36790    0.63700    1.000
    O18      O        0.08250    0.75390    0.17660    1.000
    O19      O        0.06340    0.65090    0.60220    1.000
    O20      O        0.27760    0.56410    0.57710    1.000
    O21      O        0.49710    0.69890    0.68140    1.000
    O22      O        0.71430    0.63600    0.67520    1.000
    O23      O        0.87570    0.97990    0.52840    1.000
    O24      O        0.72680    0.17560    0.47170    1.000
    O25      O        0.92050    0.20420    0.57370    1.000
    O26      O        0.99170    0.79830    0.05270    1.000
    O27      O        0.94670    0.09370    0.33880    1.000
    O28      O        0.77050    0.27880    0.29140    1.000
    O29      O        0.42040    0.46030    0.75050    1.000
    H26      H        0.35770    0.42770    0.76580    1.000
    O30      O        0.63180    0.39640    0.76400    1.000
    O31      O        0.16560    0.59800    0.01070    1.000
    O32      O        0.26320    0.48510    0.13630    1.000
