# CIF file generated by openbabel 3.1.0, see https://openbabel.org
data_I
_chemical_name_common 'image0'
_cell_length_a 21.294
_cell_length_b 7.1789
_cell_length_c 15.256
_cell_angle_alpha 90
_cell_angle_beta 90
_cell_angle_gamma 90
_space_group_name_H-M_alt 'P 1'
_space_group_name_Hall 'P 1'
loop_
    _symmetry_equiv_pos_as_xyz
    x,y,z
loop_
    _atom_site_label
    _atom_site_type_symbol
    _atom_site_fract_x
    _atom_site_fract_y
    _atom_site_fract_z
    _atom_site_occupancy
    N1       N        0.56640    0.34640    0.06080    1.000
    C1       C        0.61260    0.59940    0.89150    1.000
    H1       H        0.62330    0.47590    0.88080    1.000
    C2       C        0.74240    0.62200    0.82190    1.000
    C3       C        0.70370    0.61900    0.73680    1.000
    H2       H        0.73720    0.53080    0.86720    1.000
    H3       H        0.67230    0.52380    0.73100    1.000
    N2       N        0.06640    0.84640    0.56080    1.000
    C4       C        0.11260    0.09940    0.39150    1.000
    H4       H        0.12330    0.97590    0.38080    1.000
    C5       C        0.24240    0.12200    0.32190    1.000
    C6       C        0.20370    0.11900    0.23680    1.000
    H5       H        0.23720    0.03080    0.36720    1.000
    H6       H        0.17230    0.02380    0.23100    1.000
    N3       N        0.43360    0.15360    0.06080    1.000
    C7       C        0.38740    0.90060    0.89150    1.000
    H7       H        0.37670    0.02410    0.88080    1.000
    C8       C        0.25760    0.87800    0.82190    1.000
    C9       C        0.29630    0.88100    0.73680    1.000
    H8       H        0.26280    0.96920    0.86720    1.000
    H9       H        0.32770    0.97620    0.73100    1.000
    N4       N        0.93360    0.65360    0.56080    1.000
    C10      C        0.88740    0.40060    0.39150    1.000
    H10      H        0.87670    0.52410    0.38080    1.000
    C11      C        0.75760    0.37800    0.32190    1.000
    C12      C        0.79630    0.38100    0.23680    1.000
    H11      H        0.76280    0.46920    0.36720    1.000
    H12      H        0.82770    0.47620    0.23100    1.000
    N5       N        0.43360    0.84640    0.93920    1.000
    C13      C        0.38740    0.09940    0.10850    1.000
    H13      H        0.37670    0.97590    0.11920    1.000
    C14      C        0.25760    0.12200    0.17810    1.000
    C15      C        0.29630    0.11900    0.26320    1.000
    H14      H        0.26280    0.03080    0.13280    1.000
    H15      H        0.32770    0.02380    0.26900    1.000
    N6       N        0.93360    0.34640    0.43920    1.000
    C16      C        0.88740    0.59940    0.60850    1.000
    H16      H        0.87670    0.47590    0.61920    1.000
    C17      C        0.75760    0.62200    0.67810    1.000
    C18      C        0.79630    0.61900    0.76320    1.000
    H17      H        0.76280    0.53080    0.63280    1.000
    H18      H        0.82770    0.52380    0.76900    1.000
    N7       N        0.56640    0.65360    0.93920    1.000
    C19      C        0.61260    0.40060    0.10850    1.000
    H19      H        0.62330    0.52410    0.11920    1.000
    C20      C        0.74240    0.37800    0.17810    1.000
    C21      C        0.70370    0.38100    0.26320    1.000
    H20      H        0.73720    0.46920    0.13280    1.000
    H21      H        0.67230    0.47620    0.26900    1.000
    N8       N        0.06640    0.15360    0.43920    1.000
    C22      C        0.11260    0.90060    0.60850    1.000
    H22      H        0.12330    0.02410    0.61920    1.000
    C23      C        0.24240    0.87800    0.67810    1.000
    C24      C        0.20370    0.88100    0.76320    1.000
    H23      H        0.23720    0.96920    0.63280    1.000
    H24      H        0.17230    0.97620    0.76900    1.000
    N9       N        0.43360    0.65360    0.93920    1.000
    C25      C        0.38740    0.40060    0.10850    1.000
    H25      H        0.37670    0.52410    0.11920    1.000
    C26      C        0.25760    0.37800    0.17810    1.000
    C27      C        0.29630    0.38100    0.26320    1.000
    H26      H        0.26280    0.46920    0.13280    1.000
    H27      H        0.32770    0.47620    0.26900    1.000
    N10      N        0.93360    0.15360    0.43920    1.000
    C28      C        0.88740    0.90060    0.60850    1.000
    H28      H        0.87670    0.02410    0.61920    1.000
    C29      C        0.75760    0.87800    0.67810    1.000
    C30      C        0.79630    0.88100    0.76320    1.000
    H29      H        0.76280    0.96920    0.63280    1.000
    H30      H        0.82770    0.97620    0.76900    1.000
    N11      N        0.56640    0.84640    0.93920    1.000
    C31      C        0.61260    0.09940    0.10850    1.000
    H31      H        0.62330    0.97590    0.11920    1.000
    C32      C        0.74240    0.12200    0.17810    1.000
    C33      C        0.70370    0.11900    0.26320    1.000
    H32      H        0.73720    0.03080    0.13280    1.000
    H33      H        0.67230    0.02380    0.26900    1.000
    N12      N        0.06640    0.34640    0.43920    1.000
    C34      C        0.11260    0.59940    0.60850    1.000
    H34      H        0.12330    0.47590    0.61920    1.000
    C35      C        0.24240    0.62200    0.67810    1.000
    C36      C        0.20370    0.61900    0.76320    1.000
    H35      H        0.23720    0.53080    0.63280    1.000
    H36      H        0.17230    0.52380    0.76900    1.000
    N13      N        0.56640    0.15360    0.06080    1.000
    C37      C        0.61260    0.90060    0.89150    1.000
    H37      H        0.62330    0.02410    0.88080    1.000
    C38      C        0.74240    0.87800    0.82190    1.000
    C39      C        0.70370    0.88100    0.73680    1.000
    H38      H        0.73720    0.96920    0.86720    1.000
    H39      H        0.67230    0.97620    0.73100    1.000
    N14      N        0.06640    0.65360    0.56080    1.000
    C40      C        0.11260    0.40060    0.39150    1.000
    H40      H        0.12330    0.52410    0.38080    1.000
    C41      C        0.24240    0.37800    0.32190    1.000
    C42      C        0.20370    0.38100    0.23680    1.000
    H41      H        0.23720    0.46920    0.36720    1.000
    H42      H        0.17230    0.47620    0.23100    1.000
    N15      N        0.43360    0.34640    0.06080    1.000
    C43      C        0.38740    0.59940    0.89150    1.000
    H43      H        0.37670    0.47590    0.88080    1.000
    C44      C        0.25760    0.62200    0.82190    1.000
    C45      C        0.29630    0.61900    0.73680    1.000
    H44      H        0.26280    0.53080    0.86720    1.000
    H45      H        0.32770    0.52380    0.73100    1.000
    N16      N        0.93360    0.84640    0.56080    1.000
    C46      C        0.88740    0.09940    0.39150    1.000
    H46      H        0.87670    0.97590    0.38080    1.000
    C47      C        0.75760    0.12200    0.32190    1.000
    C48      C        0.79630    0.11900    0.23680    1.000
    H47      H        0.76280    0.03080    0.36720    1.000
    H48      H        0.82770    0.02380    0.23100    1.000
    Cu1      Cu       0.50000    0.50000    0.00000    1.000
    Cu2      Cu       0.00000    0.00000    0.50000    1.000
    Cu3      Cu       0.50000    0.00000    0.00000    1.000
    Cu4      Cu       0.00000    0.50000    0.50000    1.000
    N17      N        0.64350    0.75000    0.85870    1.000
    C49      C        0.69740    0.75000    0.80470    1.000
    N18      N        0.14350    0.25000    0.35870    1.000
    C50      C        0.19740    0.25000    0.30470    1.000
    N19      N        0.35650    0.75000    0.85870    1.000
    C51      C        0.30260    0.75000    0.80470    1.000
    N20      N        0.85650    0.25000    0.35870    1.000
    C52      C        0.80260    0.25000    0.30470    1.000
    N21      N        0.35650    0.25000    0.14130    1.000
    C53      C        0.30260    0.25000    0.19530    1.000
    N22      N        0.85650    0.75000    0.64130    1.000
    C54      C        0.80260    0.75000    0.69530    1.000
    N23      N        0.64350    0.25000    0.14130    1.000
    C55      C        0.69740    0.25000    0.19530    1.000
    N24      N        0.14350    0.75000    0.64130    1.000
    C56      C        0.19740    0.75000    0.69530    1.000
