# CIF file generated by openbabel 3.1.0, see https://openbabel.org
data_I
_chemical_name_common 'image0'
_cell_length_a 32.207
_cell_length_b 13.378
_cell_length_c 15.871
_cell_angle_alpha 90
_cell_angle_beta 91.05
_cell_angle_gamma 90
_space_group_name_H-M_alt 'P 1'
_space_group_name_Hall 'P 1'
loop_
    _symmetry_equiv_pos_as_xyz
    x,y,z
loop_
    _atom_site_label
    _atom_site_type_symbol
    _atom_site_fract_x
    _atom_site_fract_y
    _atom_site_fract_z
    _atom_site_occupancy
    Cd1      Cd       0.60601    0.69508    0.23557    1.000
    O1       O        0.55887    0.77050    0.34230    1.000
    O2       O        0.62626    0.80150    0.34670    1.000
    O3       O        0.53108    0.11650    0.66720    1.000
    O4       O        0.59681    0.16800    0.65410    1.000
    O5       O        0.59067    0.58670    0.12300    1.000
    O6       O        0.53544    0.64710    0.18520    1.000
    N1       N        0.61699    0.55660    0.32150    1.000
    N2       N        0.82423    0.19890    0.30170    1.000
    C1       C        0.58404    0.89000    0.44340    1.000
    C2       C        0.61620    0.95450    0.46670    1.000
    H1       H        0.64220    0.94960    0.43950    1.000
    C3       C        0.61085    0.02510    0.52830    1.000
    H2       H        0.63290    0.06970    0.54220    1.000
    C4       C        0.57333    0.03200    0.57080    1.000
    C5       C        0.54208    0.96490    0.55020    1.000
    H3       H        0.51690    0.96670    0.58040    1.000
    C6       C        0.54670    0.89400    0.48540    1.000
    H4       H        0.52460    0.84980    0.47070    1.000
    C7       C        0.59020    0.81610    0.37300    1.000
    C8       C        0.56661    0.11300    0.63640    1.000
    C9       C        0.52497    0.54780    0.06090    1.000
    C10      C        0.54218    0.48310    0.00400    1.000
    H5       H        0.57130    0.47120    0.00680    1.000
    C11      C        0.48180    0.56580    0.05790    1.000
    H6       H        0.46930    0.60990    0.09680    1.000
    C12      C        0.55159    0.59710    0.12630    1.000
    C13      C        0.64360    0.55900    0.38790    1.000
    H7       H        0.65640    0.62070    0.40270    1.000
    C14      C        0.65320    0.47410    0.43580    1.000
    H8       H        0.67290    0.47830    0.48090    1.000
    C15      C        0.63400    0.38420    0.41800    1.000
    C16      C        0.60570    0.38330    0.35250    1.000
    H9       H        0.59070    0.32400    0.33930    1.000
    C17      C        0.59910    0.47010    0.30520    1.000
    H10      H        0.58040    0.46640    0.25830    1.000
    C18      C        0.80530    0.28700    0.30380    1.000
    H11      H        0.82090    0.34600    0.29340    1.000
    C19      C        0.76390    0.29480    0.32070    1.000
    H12      H        0.75080    0.35840    0.31850    1.000
    C20      C        0.74060    0.21040    0.34130    1.000
    C21      C        0.76180    0.12010    0.34250    1.000
    H13      H        0.74800    0.05980    0.35670    1.000
    C22      C        0.80270    0.11950    0.32300    1.000
    H14      H        0.81680    0.05710    0.32490    1.000
    C23      C        0.64420    0.29030    0.46710    1.000
    H15      H        0.62510    0.23600    0.44910    1.000
    H16      H        0.64020    0.30250    0.52790    1.000
    C24      C        0.68940    0.25780    0.45260    1.000
    H17      H        0.70820    0.31510    0.46310    1.000
    H18      H        0.69710    0.20400    0.49280    1.000
    C25      C        0.69470    0.22050    0.36310    1.000
    H19      H        0.68110    0.26780    0.32330    1.000
    H20      H        0.68100    0.15480    0.35660    1.000
    Cd2      Cd       0.10601    0.19508    0.23557    1.000
    O7       O        0.05887    0.27050    0.34230    1.000
    O8       O        0.12626    0.30150    0.34670    1.000
    O9       O        0.03108    0.61650    0.66720    1.000
    O10      O        0.09681    0.66800    0.65410    1.000
    O11      O        0.09067    0.08670    0.12300    1.000
    O12      O        0.03544    0.14710    0.18520    1.000
    N3       N        0.11699    0.05660    0.32150    1.000
    N4       N        0.32423    0.69890    0.30170    1.000
    C26      C        0.08404    0.39000    0.44340    1.000
    C27      C        0.11620    0.45450    0.46670    1.000
    H21      H        0.14220    0.44960    0.43950    1.000
    C28      C        0.11085    0.52510    0.52830    1.000
    H22      H        0.13290    0.56970    0.54220    1.000
    C29      C        0.07333    0.53200    0.57080    1.000
    C30      C        0.04208    0.46490    0.55020    1.000
    H23      H        0.01690    0.46670    0.58040    1.000
    C31      C        0.04670    0.39400    0.48540    1.000
    H24      H        0.02460    0.34980    0.47070    1.000
    C32      C        0.09020    0.31610    0.37300    1.000
    C33      C        0.06661    0.61300    0.63640    1.000
    C34      C        0.02497    0.04780    0.06090    1.000
    C35      C        0.04218    0.98310    0.00400    1.000
    H25      H        0.07130    0.97120    0.00680    1.000
    C36      C        0.98180    0.06580    0.05790    1.000
    H26      H        0.96930    0.10990    0.09680    1.000
    C37      C        0.05159    0.09710    0.12630    1.000
    C38      C        0.14360    0.05900    0.38790    1.000
    H27      H        0.15640    0.12070    0.40270    1.000
    C39      C        0.15320    0.97410    0.43580    1.000
    H28      H        0.17290    0.97830    0.48090    1.000
    C40      C        0.13400    0.88420    0.41800    1.000
    C41      C        0.10570    0.88330    0.35250    1.000
    H29      H        0.09070    0.82400    0.33930    1.000
    C42      C        0.09910    0.97010    0.30520    1.000
    H30      H        0.08040    0.96640    0.25830    1.000
    C43      C        0.30530    0.78700    0.30380    1.000
    H31      H        0.32090    0.84600    0.29340    1.000
    C44      C        0.26390    0.79480    0.32070    1.000
    H32      H        0.25080    0.85840    0.31850    1.000
    C45      C        0.24060    0.71040    0.34130    1.000
    C46      C        0.26180    0.62010    0.34250    1.000
    H33      H        0.24800    0.55980    0.35670    1.000
    C47      C        0.30270    0.61950    0.32300    1.000
    H34      H        0.31680    0.55710    0.32490    1.000
    C48      C        0.14420    0.79030    0.46710    1.000
    H35      H        0.12510    0.73600    0.44910    1.000
    H36      H        0.14020    0.80250    0.52790    1.000
    C49      C        0.18940    0.75780    0.45260    1.000
    H37      H        0.20820    0.81510    0.46310    1.000
    H38      H        0.19710    0.70400    0.49280    1.000
    C50      C        0.19470    0.72050    0.36310    1.000
    H39      H        0.18110    0.76780    0.32330    1.000
    H40      H        0.18100    0.65480    0.35660    1.000
    Cd3      Cd       0.39399    0.69508    0.26443    1.000
    O13      O        0.44113    0.77050    0.15770    1.000
    O14      O        0.37374    0.80150    0.15330    1.000
    O15      O        0.46892    0.11650    0.83280    1.000
    O16      O        0.40319    0.16800    0.84590    1.000
    O17      O        0.40933    0.58670    0.37700    1.000
    O18      O        0.46456    0.64710    0.31480    1.000
    N5       N        0.38301    0.55660    0.17850    1.000
    N6       N        0.17577    0.19890    0.19830    1.000
    C51      C        0.41596    0.89000    0.05660    1.000
    C52      C        0.38380    0.95450    0.03330    1.000
    H41      H        0.35780    0.94960    0.06050    1.000
    C53      C        0.38915    0.02510    0.97170    1.000
    H42      H        0.36710    0.06970    0.95780    1.000
    C54      C        0.42667    0.03200    0.92920    1.000
    C55      C        0.45792    0.96490    0.94980    1.000
    H43      H        0.48310    0.96670    0.91960    1.000
    C56      C        0.45330    0.89400    0.01460    1.000
    H44      H        0.47540    0.84980    0.02930    1.000
    C57      C        0.40980    0.81610    0.12700    1.000
    C58      C        0.43339    0.11300    0.86360    1.000
    C59      C        0.47503    0.54780    0.43910    1.000
    C60      C        0.45782    0.48310    0.49600    1.000
    H45      H        0.42870    0.47120    0.49320    1.000
    C61      C        0.51820    0.56580    0.44210    1.000
    H46      H        0.53070    0.60990    0.40320    1.000
    C62      C        0.44841    0.59710    0.37370    1.000
    C63      C        0.35640    0.55900    0.11210    1.000
    H47      H        0.34360    0.62070    0.09730    1.000
    C64      C        0.34680    0.47410    0.06420    1.000
    H48      H        0.32710    0.47830    0.01910    1.000
    C65      C        0.36600    0.38420    0.08200    1.000
    C66      C        0.39430    0.38330    0.14750    1.000
    H49      H        0.40930    0.32400    0.16070    1.000
    C67      C        0.40090    0.47010    0.19480    1.000
    H50      H        0.41960    0.46640    0.24170    1.000
    C68      C        0.19470    0.28700    0.19620    1.000
    H51      H        0.17910    0.34600    0.20660    1.000
    C69      C        0.23610    0.29480    0.17930    1.000
    H52      H        0.24920    0.35840    0.18150    1.000
    C70      C        0.25940    0.21040    0.15870    1.000
    C71      C        0.23820    0.12010    0.15750    1.000
    H53      H        0.25200    0.05980    0.14330    1.000
    C72      C        0.19730    0.11950    0.17700    1.000
    H54      H        0.18320    0.05710    0.17510    1.000
    C73      C        0.35580    0.29030    0.03290    1.000
    H55      H        0.37490    0.23600    0.05090    1.000
    H56      H        0.35980    0.30250    0.97210    1.000
    C74      C        0.31060    0.25780    0.04740    1.000
    H57      H        0.29180    0.31510    0.03690    1.000
    H58      H        0.30290    0.20400    0.00720    1.000
    C75      C        0.30530    0.22050    0.13690    1.000
    H59      H        0.31890    0.26780    0.17670    1.000
    H60      H        0.31900    0.15480    0.14340    1.000
    Cd4      Cd       0.89399    0.19508    0.26443    1.000
    O19      O        0.94113    0.27050    0.15770    1.000
    O20      O        0.87374    0.30150    0.15330    1.000
    O21      O        0.96892    0.61650    0.83280    1.000
    O22      O        0.90319    0.66800    0.84590    1.000
    O23      O        0.90933    0.08670    0.37700    1.000
    O24      O        0.96456    0.14710    0.31480    1.000
    N7       N        0.88301    0.05660    0.17850    1.000
    N8       N        0.67577    0.69890    0.19830    1.000
    C76      C        0.91596    0.39000    0.05660    1.000
    C77      C        0.88380    0.45450    0.03330    1.000
    H61      H        0.85780    0.44960    0.06050    1.000
    C78      C        0.88915    0.52510    0.97170    1.000
    H62      H        0.86710    0.56970    0.95780    1.000
    C79      C        0.92667    0.53200    0.92920    1.000
    C80      C        0.95792    0.46490    0.94980    1.000
    H63      H        0.98310    0.46670    0.91960    1.000
    C81      C        0.95330    0.39400    0.01460    1.000
    H64      H        0.97540    0.34980    0.02930    1.000
    C82      C        0.90980    0.31610    0.12700    1.000
    C83      C        0.93339    0.61300    0.86360    1.000
    C84      C        0.97503    0.04780    0.43910    1.000
    C85      C        0.95782    0.98310    0.49600    1.000
    H65      H        0.92870    0.97120    0.49320    1.000
    C86      C        0.01820    0.06580    0.44210    1.000
    H66      H        0.03070    0.10990    0.40320    1.000
    C87      C        0.94841    0.09710    0.37370    1.000
    C88      C        0.85640    0.05900    0.11210    1.000
    H67      H        0.84360    0.12070    0.09730    1.000
    C89      C        0.84680    0.97410    0.06420    1.000
    H68      H        0.82710    0.97830    0.01910    1.000
    C90      C        0.86600    0.88420    0.08200    1.000
    C91      C        0.89430    0.88330    0.14750    1.000
    H69      H        0.90930    0.82400    0.16070    1.000
    C92      C        0.90090    0.97010    0.19480    1.000
    H70      H        0.91960    0.96640    0.24170    1.000
    C93      C        0.69470    0.78700    0.19620    1.000
    H71      H        0.67910    0.84600    0.20660    1.000
    C94      C        0.73610    0.79480    0.17930    1.000
    H72      H        0.74920    0.85840    0.18150    1.000
    C95      C        0.75940    0.71040    0.15870    1.000
    C96      C        0.73820    0.62010    0.15750    1.000
    H73      H        0.75200    0.55980    0.14330    1.000
    C97      C        0.69730    0.61950    0.17700    1.000
    H74      H        0.68320    0.55710    0.17510    1.000
    C98      C        0.85580    0.79030    0.03290    1.000
    H75      H        0.87490    0.73600    0.05090    1.000
    H76      H        0.85980    0.80250    0.97210    1.000
    C99      C        0.81060    0.75780    0.04740    1.000
    H77      H        0.79180    0.81510    0.03690    1.000
    H78      H        0.80290    0.70400    0.00720    1.000
    C100     C        0.80530    0.72050    0.13690    1.000
    H79      H        0.81890    0.76780    0.17670    1.000
    H80      H        0.81900    0.65480    0.14340    1.000
    Cd5      Cd       0.39399    0.30492    0.76443    1.000
    O25      O        0.44113    0.22950    0.65770    1.000
    O26      O        0.37374    0.19850    0.65330    1.000
    O27      O        0.46892    0.88350    0.33280    1.000
    O28      O        0.40319    0.83200    0.34590    1.000
    O29      O        0.40933    0.41330    0.87700    1.000
    O30      O        0.46456    0.35290    0.81480    1.000
    N9       N        0.38301    0.44340    0.67850    1.000
    N10      N        0.17577    0.80110    0.69830    1.000
    C101     C        0.41596    0.11000    0.55660    1.000
    C102     C        0.38380    0.04550    0.53330    1.000
    H81      H        0.35780    0.05040    0.56050    1.000
    C103     C        0.38915    0.97490    0.47170    1.000
    H82      H        0.36710    0.93030    0.45780    1.000
    C104     C        0.42667    0.96800    0.42920    1.000
    C105     C        0.45792    0.03510    0.44980    1.000
    H83      H        0.48310    0.03330    0.41960    1.000
    C106     C        0.45330    0.10600    0.51460    1.000
    H84      H        0.47540    0.15020    0.52930    1.000
    C107     C        0.40980    0.18390    0.62700    1.000
    C108     C        0.43339    0.88700    0.36360    1.000
    C109     C        0.47503    0.45220    0.93910    1.000
    C110     C        0.45782    0.51690    0.99600    1.000
    H85      H        0.42870    0.52880    0.99320    1.000
    C111     C        0.51820    0.43420    0.94210    1.000
    H86      H        0.53070    0.39010    0.90320    1.000
    C112     C        0.44841    0.40290    0.87370    1.000
    C113     C        0.35640    0.44100    0.61210    1.000
    H87      H        0.34360    0.37930    0.59730    1.000
    C114     C        0.34680    0.52590    0.56420    1.000
    H88      H        0.32710    0.52170    0.51910    1.000
    C115     C        0.36600    0.61580    0.58200    1.000
    C116     C        0.39430    0.61670    0.64750    1.000
    H89      H        0.40930    0.67600    0.66070    1.000
    C117     C        0.40090    0.52990    0.69480    1.000
    H90      H        0.41960    0.53360    0.74170    1.000
    C118     C        0.19470    0.71300    0.69620    1.000
    H91      H        0.17910    0.65400    0.70660    1.000
    C119     C        0.23610    0.70520    0.67930    1.000
    H92      H        0.24920    0.64160    0.68150    1.000
    C120     C        0.25940    0.78960    0.65870    1.000
    C121     C        0.23820    0.87990    0.65750    1.000
    H93      H        0.25200    0.94020    0.64330    1.000
    C122     C        0.19730    0.88050    0.67700    1.000
    H94      H        0.18320    0.94290    0.67510    1.000
    C123     C        0.35580    0.70970    0.53290    1.000
    H95      H        0.37490    0.76400    0.55090    1.000
    H96      H        0.35980    0.69750    0.47210    1.000
    C124     C        0.31060    0.74220    0.54740    1.000
    H97      H        0.29180    0.68490    0.53690    1.000
    H98      H        0.30290    0.79600    0.50720    1.000
    C125     C        0.30530    0.77950    0.63690    1.000
    H99      H        0.31890    0.73220    0.67670    1.000
    H100     H        0.31900    0.84520    0.64340    1.000
    Cd6      Cd       0.89399    0.80492    0.76443    1.000
    O31      O        0.94113    0.72950    0.65770    1.000
    O32      O        0.87374    0.69850    0.65330    1.000
    O33      O        0.96892    0.38350    0.33280    1.000
    O34      O        0.90319    0.33200    0.34590    1.000
    O35      O        0.90933    0.91330    0.87700    1.000
    O36      O        0.96456    0.85290    0.81480    1.000
    N11      N        0.88301    0.94340    0.67850    1.000
    N12      N        0.67577    0.30110    0.69830    1.000
    C126     C        0.91596    0.61000    0.55660    1.000
    C127     C        0.88380    0.54550    0.53330    1.000
    H101     H        0.85780    0.55040    0.56050    1.000
    C128     C        0.88915    0.47490    0.47170    1.000
    H102     H        0.86710    0.43030    0.45780    1.000
    C129     C        0.92667    0.46800    0.42920    1.000
    C130     C        0.95792    0.53510    0.44980    1.000
    H103     H        0.98310    0.53330    0.41960    1.000
    C131     C        0.95330    0.60600    0.51460    1.000
    H104     H        0.97540    0.65020    0.52930    1.000
    C132     C        0.90980    0.68390    0.62700    1.000
    C133     C        0.93339    0.38700    0.36360    1.000
    C134     C        0.97503    0.95220    0.93910    1.000
    C135     C        0.95782    0.01690    0.99600    1.000
    H105     H        0.92870    0.02880    0.99320    1.000
    C136     C        0.01820    0.93420    0.94210    1.000
    H106     H        0.03070    0.89010    0.90320    1.000
    C137     C        0.94841    0.90290    0.87370    1.000
    C138     C        0.85640    0.94100    0.61210    1.000
    H107     H        0.84360    0.87930    0.59730    1.000
    C139     C        0.84680    0.02590    0.56420    1.000
    H108     H        0.82710    0.02170    0.51910    1.000
    C140     C        0.86600    0.11580    0.58200    1.000
    C141     C        0.89430    0.11670    0.64750    1.000
    H109     H        0.90930    0.17600    0.66070    1.000
    C142     C        0.90090    0.02990    0.69480    1.000
    H110     H        0.91960    0.03360    0.74170    1.000
    C143     C        0.69470    0.21300    0.69620    1.000
    H111     H        0.67910    0.15400    0.70660    1.000
    C144     C        0.73610    0.20520    0.67930    1.000
    H112     H        0.74920    0.14160    0.68150    1.000
    C145     C        0.75940    0.28960    0.65870    1.000
    C146     C        0.73820    0.37990    0.65750    1.000
    H113     H        0.75200    0.44020    0.64330    1.000
    C147     C        0.69730    0.38050    0.67700    1.000
    H114     H        0.68320    0.44290    0.67510    1.000
    C148     C        0.85580    0.20970    0.53290    1.000
    H115     H        0.87490    0.26400    0.55090    1.000
    H116     H        0.85980    0.19750    0.47210    1.000
    C149     C        0.81060    0.24220    0.54740    1.000
    H117     H        0.79180    0.18490    0.53690    1.000
    H118     H        0.80290    0.29600    0.50720    1.000
    C150     C        0.80530    0.27950    0.63690    1.000
    H119     H        0.81890    0.23220    0.67670    1.000
    H120     H        0.81900    0.34520    0.64340    1.000
    Cd7      Cd       0.60601    0.30492    0.73557    1.000
    O37      O        0.55887    0.22950    0.84230    1.000
    O38      O        0.62626    0.19850    0.84670    1.000
    O39      O        0.53108    0.88350    0.16720    1.000
    O40      O        0.59681    0.83200    0.15410    1.000
    O41      O        0.59067    0.41330    0.62300    1.000
    O42      O        0.53544    0.35290    0.68520    1.000
    N13      N        0.61699    0.44340    0.82150    1.000
    N14      N        0.82423    0.80110    0.80170    1.000
    C151     C        0.58404    0.11000    0.94340    1.000
    C152     C        0.61620    0.04550    0.96670    1.000
    H121     H        0.64220    0.05040    0.93950    1.000
    C153     C        0.61085    0.97490    0.02830    1.000
    H122     H        0.63290    0.93030    0.04220    1.000
    C154     C        0.57333    0.96800    0.07080    1.000
    C155     C        0.54208    0.03510    0.05020    1.000
    H123     H        0.51690    0.03330    0.08040    1.000
    C156     C        0.54670    0.10600    0.98540    1.000
    H124     H        0.52460    0.15020    0.97070    1.000
    C157     C        0.59020    0.18390    0.87300    1.000
    C158     C        0.56661    0.88700    0.13640    1.000
    C159     C        0.52497    0.45220    0.56090    1.000
    C160     C        0.54218    0.51690    0.50400    1.000
    H125     H        0.57130    0.52880    0.50680    1.000
    C161     C        0.48180    0.43420    0.55790    1.000
    H126     H        0.46930    0.39010    0.59680    1.000
    C162     C        0.55159    0.40290    0.62630    1.000
    C163     C        0.64360    0.44100    0.88790    1.000
    H127     H        0.65640    0.37930    0.90270    1.000
    C164     C        0.65320    0.52590    0.93580    1.000
    H128     H        0.67290    0.52170    0.98090    1.000
    C165     C        0.63400    0.61580    0.91800    1.000
    C166     C        0.60570    0.61670    0.85250    1.000
    H129     H        0.59070    0.67600    0.83930    1.000
    C167     C        0.59910    0.52990    0.80520    1.000
    H130     H        0.58040    0.53360    0.75830    1.000
    C168     C        0.80530    0.71300    0.80380    1.000
    H131     H        0.82090    0.65400    0.79340    1.000
    C169     C        0.76390    0.70520    0.82070    1.000
    H132     H        0.75080    0.64160    0.81850    1.000
    C170     C        0.74060    0.78960    0.84130    1.000
    C171     C        0.76180    0.87990    0.84250    1.000
    H133     H        0.74800    0.94020    0.85670    1.000
    C172     C        0.80270    0.88050    0.82300    1.000
    H134     H        0.81680    0.94290    0.82490    1.000
    C173     C        0.64420    0.70970    0.96710    1.000
    H135     H        0.62510    0.76400    0.94910    1.000
    H136     H        0.64020    0.69750    0.02790    1.000
    C174     C        0.68940    0.74220    0.95260    1.000
    H137     H        0.70820    0.68490    0.96310    1.000
    H138     H        0.69710    0.79600    0.99280    1.000
    C175     C        0.69470    0.77950    0.86310    1.000
    H139     H        0.68110    0.73220    0.82330    1.000
    H140     H        0.68100    0.84520    0.85660    1.000
    Cd8      Cd       0.10601    0.80492    0.73557    1.000
    O43      O        0.05887    0.72950    0.84230    1.000
    O44      O        0.12626    0.69850    0.84670    1.000
    O45      O        0.03108    0.38350    0.16720    1.000
    O46      O        0.09681    0.33200    0.15410    1.000
    O47      O        0.09067    0.91330    0.62300    1.000
    O48      O        0.03544    0.85290    0.68520    1.000
    N15      N        0.11699    0.94340    0.82150    1.000
    N16      N        0.32423    0.30110    0.80170    1.000
    C176     C        0.08404    0.61000    0.94340    1.000
    C177     C        0.11620    0.54550    0.96670    1.000
    H141     H        0.14220    0.55040    0.93950    1.000
    C178     C        0.11085    0.47490    0.02830    1.000
    H142     H        0.13290    0.43030    0.04220    1.000
    C179     C        0.07333    0.46800    0.07080    1.000
    C180     C        0.04208    0.53510    0.05020    1.000
    H143     H        0.01690    0.53330    0.08040    1.000
    C181     C        0.04670    0.60600    0.98540    1.000
    H144     H        0.02460    0.65020    0.97070    1.000
    C182     C        0.09020    0.68390    0.87300    1.000
    C183     C        0.06661    0.38700    0.13640    1.000
    C184     C        0.02497    0.95220    0.56090    1.000
    C185     C        0.04218    0.01690    0.50400    1.000
    H145     H        0.07130    0.02880    0.50680    1.000
    C186     C        0.98180    0.93420    0.55790    1.000
    H146     H        0.96930    0.89010    0.59680    1.000
    C187     C        0.05159    0.90290    0.62630    1.000
    C188     C        0.14360    0.94100    0.88790    1.000
    H147     H        0.15640    0.87930    0.90270    1.000
    C189     C        0.15320    0.02590    0.93580    1.000
    H148     H        0.17290    0.02170    0.98090    1.000
    C190     C        0.13400    0.11580    0.91800    1.000
    C191     C        0.10570    0.11670    0.85250    1.000
    H149     H        0.09070    0.17600    0.83930    1.000
    C192     C        0.09910    0.02990    0.80520    1.000
    H150     H        0.08040    0.03360    0.75830    1.000
    C193     C        0.30530    0.21300    0.80380    1.000
    H151     H        0.32090    0.15400    0.79340    1.000
    C194     C        0.26390    0.20520    0.82070    1.000
    H152     H        0.25080    0.14160    0.81850    1.000
    C195     C        0.24060    0.28960    0.84130    1.000
    C196     C        0.26180    0.37990    0.84250    1.000
    H153     H        0.24800    0.44020    0.85670    1.000
    C197     C        0.30270    0.38050    0.82300    1.000
    H154     H        0.31680    0.44290    0.82490    1.000
    C198     C        0.14420    0.20970    0.96710    1.000
    H155     H        0.12510    0.26400    0.94910    1.000
    H156     H        0.14020    0.19750    0.02790    1.000
    C199     C        0.18940    0.24220    0.95260    1.000
    H157     H        0.20820    0.18490    0.96310    1.000
    H158     H        0.19710    0.29600    0.99280    1.000
    C200     C        0.19470    0.27950    0.86310    1.000
    H159     H        0.18110    0.23220    0.82330    1.000
    H160     H        0.18100    0.34520    0.85660    1.000
    Cd9      Cd       0.50000    0.77497    0.25000    1.000
    Cd10     Cd       0.00000    0.27497    0.25000    1.000
    Cd11     Cd       0.50000    0.22503    0.75000    1.000
    Cd12     Cd       0.00000    0.72503    0.75000    1.000
