# CIF file generated by openbabel 3.1.0, see https://openbabel.org
data_I
_chemical_name_common 'image0'
_cell_length_a 10.134
_cell_length_b 10.836
_cell_length_c 13.741
_cell_angle_alpha 79.153
_cell_angle_beta 78.786
_cell_angle_gamma 86.276
_space_group_name_H-M_alt 'P 1'
_space_group_name_Hall 'P 1'
loop_
    _symmetry_equiv_pos_as_xyz
    x,y,z
loop_
    _atom_site_label
    _atom_site_type_symbol
    _atom_site_fract_x
    _atom_site_fract_y
    _atom_site_fract_z
    _atom_site_occupancy
    Eu1      Eu       0.68102    0.07748    0.70312    1.000
    C1       C        0.70180    0.47220    0.72680    1.000
    C2       C        0.67850    0.41770    0.82850    1.000
    H1       H        0.67290    0.33080    0.84690    1.000
    C3       C        0.66360    0.49050    0.90240    1.000
    C4       C        0.66500    0.62080    0.87450    1.000
    H2       H        0.65350    0.67100    0.92350    1.000
    C5       C        0.68370    0.67520    0.77360    1.000
    C6       C        0.70370    0.60170    0.69990    1.000
    H3       H        0.71840    0.63920    0.63210    1.000
    C7       C        0.68700    0.81490    0.74750    1.000
    C8       C        0.73260    0.39410    0.64620    1.000
    C9       C        0.66580    0.48230    0.08210    1.000
    C10      C        0.65160    0.40030    0.18390    1.000
    C11      C        0.65120    0.26970    0.20190    1.000
    H4       H        0.65460    0.22610    0.14920    1.000
    C12      C        0.64570    0.20620    0.29910    1.000
    H5       H        0.64530    0.11890    0.31010    1.000
    C13      C        0.63930    0.38740    0.36060    1.000
    H6       H        0.63460    0.42870    0.41470    1.000
    C14      C        0.64440    0.45780    0.26610    1.000
    H7       H        0.64300    0.54510    0.25740    1.000
    C15      C        0.26250    0.11400    0.83210    1.000
    C16      C        0.15860    0.10370    0.78340    1.000
    H8       H        0.17670    0.08590    0.71840    1.000
    C17      C        0.02590    0.12020    0.83170    1.000
    C18      C        0.99900    0.14980    0.92710    1.000
    H9       H        0.91050    0.16140    0.95900    1.000
    C19      C        0.10410    0.16240    0.97550    1.000
    C20      C        0.23470    0.14190    0.92980    1.000
    H10      H        0.30480    0.14660    0.96370    1.000
    C21      C        0.40670    0.09800    0.78490    1.000
    C22      C        0.90920    0.10970    0.78220    1.000
    C23      C        0.99360    0.29560    0.09200    1.000
    C24      C        0.99030    0.33810    0.19050    1.000
    C25      C        0.98300    0.25740    0.28100    1.000
    H11      H        0.98300    0.17090    0.28400    1.000
    C26      C        0.97550    0.30630    0.36740    1.000
    H12      H        0.96770    0.25100    0.42860    1.000
    C27      C        0.98520    0.50640    0.27860    1.000
    H13      H        0.98680    0.59250    0.27710    1.000
    C28      C        0.98940    0.46550    0.18920    1.000
    H14      H        0.99150    0.52250    0.12920    1.000
    N1       N        0.64590    0.43040    0.00430    1.000
    H15      H        0.62020    0.35400    0.01800    1.000
    N2       N        0.64080    0.26110    0.37830    1.000
    N3       N        0.07920    0.19790    0.07230    1.000
    H16      H        0.11900    0.15690    0.11890    1.000
    N4       N        0.97910    0.42960    0.36770    1.000
    O1       O        0.80700    0.43560    0.56480    1.000
    O2       O        0.67980    0.28710    0.66430    1.000
    O3       O        0.67080    0.87100    0.66100    1.000
    O4       O        0.70580    0.87710    0.81070    1.000
    O5       O        0.69140    0.59180    0.07450    1.000
    O6       O        0.44100    0.09900    0.69070    1.000
    O7       O        0.49630    0.08400    0.83730    1.000
    O8       O        0.92690    0.09500    0.69050    1.000
    O9       O        0.79150    0.11470    0.83280    1.000
    O10      O        0.92430    0.35110    0.03320    1.000
    Eu2      Eu       0.31898    0.92252    0.29688    1.000
    C29      C        0.29820    0.52780    0.27320    1.000
    C30      C        0.32150    0.58230    0.17150    1.000
    H17      H        0.32710    0.66920    0.15310    1.000
    C31      C        0.33640    0.50950    0.09760    1.000
    C32      C        0.33500    0.37920    0.12550    1.000
    H18      H        0.34650    0.32900    0.07650    1.000
    C33      C        0.31630    0.32480    0.22640    1.000
    C34      C        0.29630    0.39830    0.30010    1.000
    H19      H        0.28160    0.36080    0.36790    1.000
    C35      C        0.31300    0.18510    0.25250    1.000
    C36      C        0.26740    0.60590    0.35380    1.000
    C37      C        0.33420    0.51770    0.91790    1.000
    C38      C        0.34840    0.59970    0.81610    1.000
    C39      C        0.34880    0.73030    0.79810    1.000
    H20      H        0.34540    0.77390    0.85080    1.000
    C40      C        0.35430    0.79380    0.70090    1.000
    H21      H        0.35470    0.88110    0.68990    1.000
    C41      C        0.36070    0.61260    0.63940    1.000
    H22      H        0.36540    0.57130    0.58530    1.000
    C42      C        0.35560    0.54220    0.73390    1.000
    H23      H        0.35700    0.45490    0.74260    1.000
    C43      C        0.73750    0.88600    0.16790    1.000
    C44      C        0.84140    0.89630    0.21660    1.000
    H24      H        0.82330    0.91410    0.28160    1.000
    C45      C        0.97410    0.87980    0.16830    1.000
    C46      C        0.00100    0.85020    0.07290    1.000
    H25      H        0.08950    0.83860    0.04100    1.000
    C47      C        0.89590    0.83760    0.02450    1.000
    C48      C        0.76530    0.85810    0.07020    1.000
    H26      H        0.69520    0.85340    0.03630    1.000
    C49      C        0.59330    0.90200    0.21510    1.000
    C50      C        0.09080    0.89030    0.21780    1.000
    C51      C        0.00640    0.70440    0.90800    1.000
    C52      C        0.00970    0.66190    0.80950    1.000
    C53      C        0.01700    0.74260    0.71900    1.000
    H27      H        0.01700    0.82910    0.71600    1.000
    C54      C        0.02450    0.69370    0.63260    1.000
    H28      H        0.03230    0.74900    0.57140    1.000
    C55      C        0.01480    0.49360    0.72140    1.000
    H29      H        0.01320    0.40750    0.72290    1.000
    C56      C        0.01060    0.53450    0.81080    1.000
    H30      H        0.00850    0.47750    0.87080    1.000
    N5       N        0.35410    0.56960    0.99570    1.000
    H31      H        0.37980    0.64600    0.98200    1.000
    N6       N        0.35920    0.73890    0.62170    1.000
    N7       N        0.92080    0.80210    0.92770    1.000
    H32      H        0.88100    0.84310    0.88110    1.000
    N8       N        0.02090    0.57040    0.63230    1.000
    O11      O        0.19300    0.56440    0.43520    1.000
    O12      O        0.32020    0.71290    0.33570    1.000
    O13      O        0.32920    0.12900    0.33900    1.000
    O14      O        0.29420    0.12290    0.18930    1.000
    O15      O        0.30860    0.40820    0.92550    1.000
    O16      O        0.55900    0.90100    0.30930    1.000
    O17      O        0.50370    0.91600    0.16270    1.000
    O18      O        0.07310    0.90500    0.30950    1.000
    O19      O        0.20850    0.88530    0.16720    1.000
    O20      O        0.07570    0.64890    0.96680    1.000
    Ni1      Ni       0.00000    0.50000    0.50000    1.000
