# CIF file generated by openbabel 3.1.0, see https://openbabel.org
data_I
_chemical_name_common 'image0'
_cell_length_a 24.03
_cell_length_b 24.1348
_cell_length_c 24.3922
_cell_angle_alpha 85.032
_cell_angle_beta 61.325
_cell_angle_gamma 61.265
_space_group_name_H-M_alt 'P 1'
_space_group_name_Hall 'P 1'
loop_
    _symmetry_equiv_pos_as_xyz
    x,y,z
loop_
    _atom_site_label
    _atom_site_type_symbol
    _atom_site_fract_x
    _atom_site_fract_y
    _atom_site_fract_z
    _atom_site_occupancy
    Ho1      Ho       0.36089    0.84689    0.20156    1.000
    O1       O        0.25170    0.87450    0.20660    1.000
    O2       O        0.29570    0.96090    0.22180    1.000
    O3       O        0.38050    0.87090    0.09950    1.000
    O4       O        0.45090    0.87550    0.16430    1.000
    O5       O        0.39980    0.75390    0.13720    1.000
    O6       O        0.33960    0.88240    0.29910    1.000
    O7       O        0.46040    0.76400    0.20860    1.000
    O8       O        0.30830    0.79240    0.27550    1.000
    N1       N        0.21220    0.84610    0.23070    1.000
    N2       N        0.23030    0.99840    0.22460    1.000
    N3       N        0.36410    0.85030    0.06330    1.000
    N4       N        0.46380    0.91000    0.11920    1.000
    N5       N        0.44530    0.69340    0.13940    1.000
    C1       C        0.23130    0.79260    0.19670    1.000
    C2       C        0.15280    0.87100    0.28970    1.000
    C3       C        0.22980    0.01810    0.17100    1.000
    C4       C        0.17010    0.01590    0.27880    1.000
    C5       C        0.29670    0.87950    0.07290    1.000
    C6       C        0.41870    0.79920    0.01550    1.000
    C7       C        0.42530    0.97430    0.13540    1.000
    C8       C        0.51590    0.87960    0.05960    1.000
    C9       C        0.41540    0.66300    0.18160    1.000
    C10      C        0.51690    0.66920    0.10340    1.000
    H1       H        0.27450    0.77440    0.15600    1.000
    C11      C        0.18880    0.76400    0.22040    1.000
    C12      C        0.11010    0.84380    0.31610    1.000
    H2       H        0.14070    0.90830    0.31320    1.000
    H3       H        0.27460    0.00770    0.13310    1.000
    C13      C        0.16570    0.05250    0.17130    1.000
    C14      C        0.10110    0.05370    0.28320    1.000
    H4       H        0.17280    0.00320    0.31580    1.000
    H5       H        0.25970    0.91630    0.10580    1.000
    C15      C        0.27850    0.85920    0.03780    1.000
    C16      C        0.40310    0.77570    0.97840    1.000
    H6       H        0.46760    0.77960    0.00760    1.000
    H7       H        0.38950    0.99490    0.17840    1.000
    C17      C        0.43910    0.01050    0.08750    1.000
    C18      C        0.53030    0.91520    0.01170    1.000
    H8       H        0.54310    0.83390    0.04970    1.000
    H9       H        0.36370    0.68090    0.20510    1.000
    C19      C        0.46110    0.60510    0.19040    1.000
    C20      C        0.56570    0.61110    0.10880    1.000
    H10      H        0.53510    0.69240    0.07310    1.000
    H11      H        0.20120    0.72810    0.19470    1.000
    C21      C        0.12730    0.78710    0.28220    1.000
    H12      H        0.06830    0.86260    0.35760    1.000
    H13      H        0.16640    0.06370    0.13270    1.000
    C22      C        0.09750    0.07240    0.22790    1.000
    H14      H        0.05740    0.06660    0.32300    1.000
    H15      H        0.22910    0.88170    0.04680    1.000
    C23      C        0.32970    0.80650    0.98900    1.000
    H16      H        0.44110    0.73890    0.94570    1.000
    H17      H        0.41220    0.05610    0.09840    1.000
    C24      C        0.49210    0.98060    0.02340    1.000
    H18      H        0.56820    0.89300    0.96950    1.000
    H19      H        0.44080    0.58220    0.21950    1.000
    C25      C        0.53840    0.57930    0.15620    1.000
    H20      H        0.61700    0.59290    0.08090    1.000
    C26      C        0.08010    0.75870    0.30990    1.000
    C27      C        0.02770    0.10440    0.22880    1.000
    C28      C        0.30910    0.78140    0.95360    1.000
    C29      C        0.58860    0.52240    0.17110    1.000
    C30      C        0.09960    0.69990    0.28600    1.000
    C31      C        0.01110    0.79140    0.36470    1.000
    C32      C        0.01800    0.09030    0.18300    1.000
    C33      C        0.96490    0.15090    0.28430    1.000
    C34      C        0.24200    0.82010    0.95590    1.000
    C35      C        0.35350    0.71970    0.91500    1.000
    C36      C        0.65710    0.47930    0.12630    1.000
    C37      C        0.56920    0.51830    0.23600    1.000
    C38      C        0.05210    0.67630    0.31120    1.000
    H21      H        0.14740    0.67400    0.25090    1.000
    H22      H        0.99670    0.83190    0.38450    1.000
    C39      C        0.96350    0.76900    0.39140    1.000
    C40      C        0.94950    0.11600    0.19070    1.000
    H23      H        0.05960    0.06200    0.14440    1.000
    H24      H        0.96980    0.16370    0.31680    1.000
    C41      C        0.89750    0.17670    0.28930    1.000
    C42      C        0.22020    0.79630    0.92410    1.000
    H25      H        0.21090    0.86290    0.97920    1.000
    H26      H        0.40080    0.69210    0.91000    1.000
    C43      C        0.33030    0.69930    0.88530    1.000
    C44      C        0.70450    0.43020    0.14320    1.000
    H27      H        0.67330    0.48240    0.08270    1.000
    H28      H        0.52270    0.54960    0.26930    1.000
    C45      C        0.61660    0.47070    0.24940    1.000
    N6       N        0.98540    0.70990    0.36300    1.000
    H29      H        0.06680    0.63560    0.29180    1.000
    H30      H        0.91680    0.79320    0.42830    1.000
    N7       N        0.89020    0.15770    0.24390    1.000
    H31      H        0.94390    0.10430    0.15820    1.000
    H32      H        0.85520    0.20850    0.32530    1.000
    N8       N        0.26390    0.73600    0.89100    1.000
    H33      H        0.17430    0.82290    0.92600    1.000
    H34      H        0.36180    0.65760    0.85940    1.000
    N9       N        0.68370    0.42700    0.20400    1.000
    H35      H        0.75200    0.39880    0.11110    1.000
    H36      H        0.60230    0.46740    0.29270    1.000
    O9       O        0.94000    0.68740    0.38550    1.000
    O10      O        0.82430    0.18000    0.25120    1.000
    O11      O        0.23910    0.71520    0.86500    1.000
    O12      O        0.73190    0.38300    0.21920    1.000
    Ho2      Ho       0.84706    0.71697    0.35933    1.000
    Ho3      Ho       0.74664    0.27997    0.23623    1.000
    O13      O        0.87810    0.61430    0.38260    1.000
    O14      O        0.77820    0.73500    0.47350    1.000
    O15      O        0.79110    0.79340    0.30800    1.000
    O16      O        0.82170    0.81770    0.39670    1.000
    O17      O        0.74350    0.71160    0.38480    1.000
    O18      O        0.94320    0.72220    0.27410    1.000
    O19      O        0.88260    0.65310    0.26780    1.000
    O20      O        0.72220    0.20280    0.21470    1.000
    O21      O        0.77480    0.31010    0.30440    1.000
    O22      O        0.66920    0.27440    0.33850    1.000
    O23      O        0.62480    0.34470    0.25480    1.000
    O24      O        0.86770    0.25970    0.17090    1.000
    N10      N        0.91080    0.58490    0.41550    1.000
    N11      N        0.76120    0.78390    0.51110    1.000
    N12      N        0.74430    0.79310    0.29210    1.000
    N13      N        0.80660    0.86950    0.37170    1.000
    N14      N        0.69820    0.70220    0.43750    1.000
    N15      N        0.96290    0.72120    0.21200    1.000
    N16      N        0.73360    0.14880    0.23940    1.000
    N17      N        0.79270    0.35540    0.29940    1.000
    N18      N        0.67860    0.26620    0.38750    1.000
    N19      N        0.56610    0.34290    0.30230    1.000
    N20      N        0.10260    0.73510    0.88950    1.000
    C46      C        0.98420    0.54300    0.38420    1.000
    C47      C        0.87120    0.59420    0.48010    1.000
    C48      C        0.80880    0.78060    0.52860    1.000
    C49      C        0.69590    0.83660    0.53480    1.000
    C50      C        0.67100    0.82780    0.33320    1.000
    C51      C        0.77340    0.76020    0.23280    1.000
    C52      C        0.86260    0.87700    0.32290    1.000
    C53      C        0.73970    0.91440    0.39040    1.000
    C54      C        0.63400    0.75150    0.48080    1.000
    C55      C        0.71710    0.63970    0.44950    1.000
    C56      C        0.92810    0.77320    0.19150    1.000
    C57      C        0.01940    0.66460    0.16890    1.000
    C58      C        0.68180    0.15020    0.29770    1.000
    C59      C        0.79650    0.09290    0.20330    1.000
    C60      C        0.86250    0.34020    0.26090    1.000
    C61      C        0.73950    0.41490    0.33120    1.000
    C62      C        0.72210    0.20550    0.39450    1.000
    C63      C        0.64320    0.31720    0.43430    1.000
    C64      C        0.55260    0.29810    0.29080    1.000
    C65      C        0.52660    0.38170    0.35810    1.000
    C66      C        0.10710    0.67770    0.90510    1.000
    C67      C        0.07170    0.78420    0.93430    1.000
    H37      H        0.01110    0.53680    0.33910    1.000
    C68      C        0.01860    0.51100    0.41460    1.000
    C69      C        0.90690    0.56180    0.51270    1.000
    H38      H        0.81970    0.62270    0.50230    1.000
    H39      H        0.85350    0.74150    0.51670    1.000
    C70      C        0.79360    0.82990    0.56090    1.000
    C71      C        0.68040    0.88720    0.56930    1.000
    H40      H        0.65990    0.83850    0.52720    1.000
    H41      H        0.65190    0.85180    0.37300    1.000
    C72      C        0.62530    0.82670    0.31480    1.000
    C73      C        0.72670    0.75840    0.21710    1.000
    H42      H        0.82460    0.73930    0.20360    1.000
    H43      H        0.91220    0.84410    0.30750    1.000
    C74      C        0.84750    0.93080    0.29660    1.000
    C75      C        0.72020    0.97050    0.36520    1.000
    H44      H        0.70140    0.90900    0.42360    1.000
    H45      H        0.62310    0.79410    0.47410    1.000
    C76      C        0.58370    0.74340    0.53420    1.000
    C77      C        0.66910    0.62960    0.50000    1.000
    H46      H        0.76420    0.60450    0.42150    1.000
    H47      H        0.88550    0.81030    0.22180    1.000
    C78      C        0.95200    0.77390    0.13010    1.000
    C79      C        0.04530    0.66290    0.10620    1.000
    H48      H        0.04000    0.62640    0.18380    1.000
    H49      H        0.63680    0.18920    0.32120    1.000
    C80      C        0.69480    0.09510    0.32230    1.000
    C81      C        0.80900    0.03720    0.22730    1.000
    H50      H        0.83140    0.09240    0.16190    1.000
    H51      H        0.89850    0.29690    0.23980    1.000
    C82      C        0.88360    0.38620    0.25130    1.000
    C83      C        0.75690    0.46230    0.32680    1.000
    H52      H        0.69000    0.42450    0.35660    1.000
    H53      H        0.74960    0.16930    0.36160    1.000
    C84      C        0.72480    0.19850    0.45070    1.000
    C85      C        0.64820    0.31100    0.48800    1.000
    H54      H        0.61380    0.35880    0.42930    1.000
    H55      H        0.58150    0.27050    0.25060    1.000
    C86      C        0.49350    0.29490    0.34160    1.000
    C87      C        0.46890    0.37670    0.40760    1.000
    H56      H        0.53780    0.41270    0.36420    1.000
    H57      H        0.13050    0.64240    0.87250    1.000
    C88      C        0.07840    0.67130    0.96660    1.000
    C89      C        0.04060    0.77960    0.99770    1.000
    H58      H        0.07090    0.82310    0.92270    1.000
    H59      H        0.07010    0.48250    0.39130    1.000
    C90      C        0.98000    0.51800    0.48270    1.000
    H60      H        0.87960    0.57020    0.55780    1.000
    H61      H        0.82840    0.82700    0.57080    1.000
    C91      C        0.72770    0.88740    0.58180    1.000
    H62      H        0.63320    0.92450    0.58550    1.000
    H63      H        0.57380    0.85190    0.34230    1.000
    C92      C        0.65170    0.79010    0.25710    1.000
    H64      H        0.74680    0.73430    0.17700    1.000
    H65      H        0.88670    0.93520    0.26340    1.000
    C93      C        0.77700    0.97820    0.31730    1.000
    H66      H        0.67020    0.00200    0.38000    1.000
    H67      H        0.53810    0.77940    0.56310    1.000
    C94      C        0.60040    0.68140    0.54530    1.000
    H68      H        0.68100    0.58670    0.50600    1.000
    H69      H        0.92720    0.81190    0.11710    1.000
    C95      C        0.01260    0.72010    0.08450    1.000
    H70      H        0.08490    0.62420    0.07670    1.000
    H71      H        0.65880    0.09630    0.36340    1.000
    C96      C        0.75940    0.03750    0.28850    1.000
    H72      H        0.85220    0.99790    0.20170    1.000
    H73      H        0.93280    0.37560    0.22210    1.000
    C97      C        0.82970    0.44910    0.28600    1.000
    H74      H        0.71980    0.50420    0.35140    1.000
    H75      H        0.75040    0.15640    0.45730    1.000
    C98      C        0.69230    0.24950    0.49600    1.000
    H76      H        0.62230    0.34780    0.51990    1.000
    H77      H        0.48160    0.26510    0.33410    1.000
    C99      C        0.45260    0.33050    0.40000    1.000
    H78      H        0.44000    0.40520    0.44730    1.000
    H79      H        0.08130    0.63160    0.97750    1.000
    C100     C        0.04320    0.72530    0.01580    1.000
    H80      H        0.01690    0.81610    0.02920    1.000
    C101     C        0.70970    0.94790    0.61780    1.000
    C102     C        0.60030    0.78530    0.24420    1.000
    C103     C        0.84550    0.50150    0.27880    1.000
    C104     C        0.69310    0.24010    0.55640    1.000
    C105     C        0.64160    0.98730    0.66880    1.000
    C106     C        0.76320    0.96760    0.59540    1.000
    C107     C        0.61970    0.76550    0.18270    1.000
    C108     C        0.53460    0.79660    0.29170    1.000
    C109     C        0.91290    0.49310    0.26510    1.000
    C110     C        0.79260    0.56460    0.28500    1.000
    C111     C        0.63360    0.28280    0.61440    1.000
    C112     C        0.75150    0.18760    0.55990    1.000
    C113     C        0.62480    0.04440    0.69720    1.000
    H81      H        0.60530    0.97500    0.68500    1.000
    H82      H        0.81150    0.94090    0.56120    1.000
    C114     C        0.74400    0.02500    0.62360    1.000
    C115     C        0.57040    0.76050    0.17110    1.000
    H83      H        0.66680    0.75530    0.14830    1.000
    H84      H        0.52120    0.80930    0.33400    1.000
    C116     C        0.48380    0.79040    0.28180    1.000
    C117     C        0.92620    0.54310    0.26070    1.000
    H85      H        0.95140    0.45070    0.25840    1.000
    H86      H        0.74660    0.57330    0.29170    1.000
    C118     C        0.80610    0.61300    0.28150    1.000
    C119     C        0.63490    0.27060    0.66990    1.000
    H87      H        0.59290    0.31980    0.61490    1.000
    H88      H        0.79310    0.15800    0.52220    1.000
    C120     C        0.74970    0.17830    0.61620    1.000
    N21      N        0.67780    0.06070    0.67410    1.000
    H89      H        0.57730    0.07180    0.73200    1.000
    H90      H        0.77820    0.03970    0.60710    1.000
    N22      N        0.50620    0.77120    0.22010    1.000
    H91      H        0.58260    0.74960    0.12880    1.000
    H92      H        0.43720    0.79900    0.31600    1.000
    N23      N        0.87180    0.60300    0.26980    1.000
    H93      H        0.97270    0.53550    0.25160    1.000
    H94      H        0.76850    0.65570    0.28740    1.000
    N24      N        0.69200    0.21970    0.67050    1.000
    H95      H        0.59420    0.29900    0.70880    1.000
    H96      H        0.78970    0.14210    0.61730    1.000
    Ho4      Ho       0.63911    0.15311    0.79844    1.000
    O25      O        0.74830    0.12550    0.79340    1.000
    O26      O        0.70430    0.03910    0.77820    1.000
    O27      O        0.61950    0.12910    0.90050    1.000
    O28      O        0.54910    0.12450    0.83570    1.000
    O29      O        0.60020    0.24610    0.86280    1.000
    O30      O        0.66040    0.11760    0.70090    1.000
    O31      O        0.53960    0.23600    0.79140    1.000
    O32      O        0.69170    0.20760    0.72450    1.000
    N25      N        0.78780    0.15390    0.76930    1.000
    N26      N        0.76970    0.00160    0.77540    1.000
    N27      N        0.63590    0.14970    0.93670    1.000
    N28      N        0.53620    0.09000    0.88080    1.000
    N29      N        0.55470    0.30660    0.86060    1.000
    C121     C        0.76870    0.20740    0.80330    1.000
    C122     C        0.84720    0.12900    0.71030    1.000
    C123     C        0.77020    0.98190    0.82900    1.000
    C124     C        0.82990    0.98410    0.72120    1.000
    C125     C        0.70330    0.12050    0.92710    1.000
    C126     C        0.58130    0.20080    0.98450    1.000
    C127     C        0.57470    0.02570    0.86460    1.000
    C128     C        0.48410    0.12040    0.94040    1.000
    C129     C        0.58460    0.33700    0.81840    1.000
    C130     C        0.48310    0.33080    0.89660    1.000
    H97      H        0.72550    0.22560    0.84400    1.000
    C131     C        0.81120    0.23600    0.77960    1.000
    C132     C        0.88990    0.15620    0.68390    1.000
    H98      H        0.85930    0.09170    0.68680    1.000
    H99      H        0.72540    0.99230    0.86690    1.000
    C133     C        0.83430    0.94750    0.82870    1.000
    C134     C        0.89890    0.94630    0.71680    1.000
    H100     H        0.82720    0.99680    0.68420    1.000
    H101     H        0.74030    0.08370    0.89420    1.000
    C135     C        0.72150    0.14080    0.96220    1.000
    C136     C        0.59690    0.22430    0.02160    1.000
    H102     H        0.53240    0.22040    0.99240    1.000
    H103     H        0.61050    0.00510    0.82160    1.000
    C137     C        0.56090    0.98950    0.91250    1.000
    C138     C        0.46970    0.08480    0.98830    1.000
    H104     H        0.45690    0.16610    0.95030    1.000
    H105     H        0.63630    0.31910    0.79490    1.000
    C139     C        0.53890    0.39490    0.80960    1.000
    C140     C        0.43430    0.38890    0.89120    1.000
    H106     H        0.46490    0.30760    0.92690    1.000
    H107     H        0.79880    0.27190    0.80530    1.000
    C141     C        0.87270    0.21290    0.71780    1.000
    H108     H        0.93170    0.13740    0.64240    1.000
    H109     H        0.83360    0.93630    0.86730    1.000
    C142     C        0.90250    0.92760    0.77210    1.000
    H110     H        0.94260    0.93340    0.67700    1.000
    H111     H        0.77090    0.11830    0.95320    1.000
    C143     C        0.67030    0.19350    0.01100    1.000
    H112     H        0.55890    0.26110    0.05430    1.000
    H113     H        0.58780    0.94390    0.90160    1.000
    C144     C        0.50790    0.01940    0.97660    1.000
    H114     H        0.43180    0.10700    0.03050    1.000
    H115     H        0.55920    0.41780    0.78050    1.000
    C145     C        0.46160    0.42070    0.84380    1.000
    H116     H        0.38300    0.40710    0.91910    1.000
    C146     C        0.91990    0.24130    0.69010    1.000
    C147     C        0.97230    0.89560    0.77120    1.000
    C148     C        0.69090    0.21860    0.04640    1.000
    C149     C        0.41140    0.47760    0.82890    1.000
    C150     C        0.90040    0.30010    0.71400    1.000
    C151     C        0.98890    0.20860    0.63530    1.000
    C152     C        0.98200    0.90970    0.81700    1.000
    C153     C        0.03510    0.84910    0.71570    1.000
    C154     C        0.75800    0.17990    0.04410    1.000
    C155     C        0.64650    0.28030    0.08500    1.000
    C156     C        0.34290    0.52070    0.87370    1.000
    C157     C        0.43080    0.48170    0.76400    1.000
    C158     C        0.94790    0.32370    0.68880    1.000
    H117     H        0.85260    0.32600    0.74910    1.000
    H118     H        0.00330    0.16810    0.61550    1.000
    C159     C        0.03650    0.23100    0.60860    1.000
    C160     C        0.05050    0.88400    0.80930    1.000
    H119     H        0.94040    0.93800    0.85560    1.000
    H120     H        0.03020    0.83630    0.68320    1.000
    C161     C        0.10250    0.82330    0.71070    1.000
    C162     C        0.77980    0.20370    0.07590    1.000
    H121     H        0.78910    0.13710    0.02080    1.000
    H122     H        0.59920    0.30790    0.09000    1.000
    C163     C        0.66970    0.30070    0.11470    1.000
    C164     C        0.29550    0.56980    0.85680    1.000
    H123     H        0.32670    0.51760    0.91730    1.000
    H124     H        0.47730    0.45040    0.73070    1.000
    C165     C        0.38340    0.52930    0.75060    1.000
    N30      N        0.01460    0.29010    0.63700    1.000
    H125     H        0.93320    0.36440    0.70820    1.000
    H126     H        0.08320    0.20680    0.57170    1.000
    N31      N        0.10980    0.84230    0.75610    1.000
    H127     H        0.05610    0.89570    0.84180    1.000
    H128     H        0.14480    0.79150    0.67470    1.000
    N32      N        0.73610    0.26400    0.10900    1.000
    H129     H        0.82570    0.17710    0.07400    1.000
    H130     H        0.63820    0.34240    0.14060    1.000
    N33      N        0.31630    0.57300    0.79600    1.000
    H131     H        0.24800    0.60120    0.88890    1.000
    H132     H        0.39770    0.53260    0.70730    1.000
    O33      O        0.06000    0.31260    0.61450    1.000
    O34      O        0.17570    0.82000    0.74880    1.000
    O35      O        0.76090    0.28480    0.13500    1.000
    O36      O        0.26810    0.61700    0.78080    1.000
    Ho5      Ho       0.15294    0.28303    0.64067    1.000
    Ho6      Ho       0.25336    0.72003    0.76377    1.000
    O37      O        0.12190    0.38570    0.61740    1.000
    O38      O        0.22180    0.26500    0.52650    1.000
    O39      O        0.20890    0.20660    0.69200    1.000
    O40      O        0.17830    0.18230    0.60330    1.000
    O41      O        0.25650    0.28840    0.61520    1.000
    O42      O        0.05680    0.27780    0.72590    1.000
    O43      O        0.11740    0.34690    0.73220    1.000
    O44      O        0.27780    0.79720    0.78530    1.000
    O45      O        0.22520    0.68990    0.69560    1.000
    O46      O        0.33080    0.72560    0.66150    1.000
    O47      O        0.37520    0.65530    0.74520    1.000
    O48      O        0.13230    0.74030    0.82910    1.000
    N34      N        0.08920    0.41510    0.58450    1.000
    N35      N        0.23880    0.21610    0.48890    1.000
    N36      N        0.25570    0.20690    0.70790    1.000
    N37      N        0.19340    0.13050    0.62830    1.000
    N38      N        0.30180    0.29780    0.56250    1.000
    N39      N        0.03710    0.27880    0.78800    1.000
    N40      N        0.26640    0.85120    0.76060    1.000
    N41      N        0.20730    0.64460    0.70060    1.000
    N42      N        0.32140    0.73380    0.61250    1.000
    N43      N        0.43390    0.65710    0.69770    1.000
    N44      N        0.89740    0.26490    0.11050    1.000
    C166     C        0.01580    0.45700    0.61580    1.000
    C167     C        0.12880    0.40580    0.51990    1.000
    C168     C        0.19120    0.21940    0.47140    1.000
    C169     C        0.30410    0.16340    0.46520    1.000
    C170     C        0.32900    0.17220    0.66680    1.000
    C171     C        0.22660    0.23980    0.76720    1.000
    C172     C        0.13740    0.12300    0.67710    1.000
    C173     C        0.26030    0.08560    0.60960    1.000
    C174     C        0.36600    0.24850    0.51920    1.000
    C175     C        0.28290    0.36030    0.55050    1.000
    C176     C        0.07190    0.22680    0.80850    1.000
    C177     C        0.98060    0.33540    0.83110    1.000
    C178     C        0.31820    0.84980    0.70230    1.000
    C179     C        0.20350    0.90710    0.79670    1.000
    C180     C        0.13750    0.65980    0.73910    1.000
    C181     C        0.26050    0.58510    0.66880    1.000
    C182     C        0.27790    0.79450    0.60550    1.000
    C183     C        0.35680    0.68280    0.56570    1.000
    C184     C        0.44740    0.70190    0.70920    1.000
    C185     C        0.47340    0.61830    0.64190    1.000
    C186     C        0.89290    0.32230    0.09490    1.000
    C187     C        0.92830    0.21580    0.06570    1.000
    H133     H        0.98890    0.46320    0.66090    1.000
    C188     C        0.98140    0.48900    0.58540    1.000
    C189     C        0.09310    0.43820    0.48730    1.000
    H134     H        0.18030    0.37730    0.49770    1.000
    H135     H        0.14650    0.25850    0.48330    1.000
    C190     C        0.20640    0.17010    0.43910    1.000
    C191     C        0.31960    0.11280    0.43070    1.000
    H136     H        0.34010    0.16150    0.47280    1.000
    H137     H        0.34810    0.14820    0.62700    1.000
    C192     C        0.37470    0.17330    0.68520    1.000
    C193     C        0.27330    0.24160    0.78290    1.000
    H138     H        0.17540    0.26070    0.79640    1.000
    H139     H        0.08780    0.15590    0.69250    1.000
    C194     C        0.15250    0.06920    0.70340    1.000
    C195     C        0.27980    0.02950    0.63480    1.000
    H140     H        0.29860    0.09100    0.57640    1.000
    H141     H        0.37690    0.20590    0.52590    1.000
    C196     C        0.41630    0.25660    0.46580    1.000
    C197     C        0.33090    0.37040    0.50000    1.000
    H142     H        0.23580    0.39550    0.57850    1.000
    H143     H        0.11450    0.18970    0.77820    1.000
    C198     C        0.04800    0.22610    0.86990    1.000
    C199     C        0.95470    0.33710    0.89380    1.000
    H144     H        0.96000    0.37360    0.81620    1.000
    H145     H        0.36320    0.81080    0.67880    1.000
    C200     C        0.30520    0.90490    0.67770    1.000
    C201     C        0.19100    0.96280    0.77270    1.000
    H146     H        0.16860    0.90760    0.83810    1.000
    H147     H        0.10150    0.70310    0.76020    1.000
    C202     C        0.11640    0.61380    0.74870    1.000
    C203     C        0.24310    0.53770    0.67320    1.000
    H148     H        0.31000    0.57550    0.64340    1.000
    H149     H        0.25040    0.83070    0.63840    1.000
    C204     C        0.27520    0.80150    0.54930    1.000
    C205     C        0.35180    0.68900    0.51200    1.000
    H150     H        0.38620    0.64120    0.57070    1.000
    H151     H        0.41850    0.72950    0.74940    1.000
    C206     C        0.50650    0.70510    0.65840    1.000
    C207     C        0.53110    0.62330    0.59240    1.000
    H152     H        0.46220    0.58730    0.63580    1.000
    H153     H        0.86950    0.35760    0.12750    1.000
    C208     C        0.92160    0.32870    0.03340    1.000
    C209     C        0.95940    0.22040    0.00230    1.000
    H154     H        0.92910    0.17690    0.07730    1.000
    H155     H        0.92990    0.51750    0.60870    1.000
    C210     C        0.02000    0.48200    0.51730    1.000
    H156     H        0.12040    0.42980    0.44220    1.000
    H157     H        0.17160    0.17300    0.42920    1.000
    C211     C        0.27230    0.11260    0.41820    1.000
    H158     H        0.36680    0.07550    0.41450    1.000
    H159     H        0.42620    0.14810    0.65770    1.000
    C212     C        0.34830    0.20990    0.74290    1.000
    H160     H        0.25320    0.26570    0.82300    1.000
    H161     H        0.11330    0.06480    0.73660    1.000
    C213     C        0.22300    0.02180    0.68270    1.000
    H162     H        0.32980    0.99800    0.62000    1.000
    H163     H        0.46190    0.22060    0.43690    1.000
    C214     C        0.39960    0.31860    0.45470    1.000
    H164     H        0.31900    0.41330    0.49400    1.000
    H165     H        0.07280    0.18810    0.88290    1.000
    C215     C        0.98740    0.27990    0.91550    1.000
    H166     H        0.91510    0.37580    0.92330    1.000
    H167     H        0.34120    0.90370    0.63660    1.000
    C216     C        0.24060    0.96250    0.71150    1.000
    H168     H        0.14780    0.00210    0.79830    1.000
    H169     H        0.06720    0.62440    0.77790    1.000
    C217     C        0.17030    0.55090    0.71400    1.000
    H170     H        0.28020    0.49580    0.64860    1.000
    H171     H        0.24960    0.84360    0.54270    1.000
    C218     C        0.30770    0.75050    0.50400    1.000
    H172     H        0.37770    0.65220    0.48010    1.000
    H173     H        0.51840    0.73490    0.66590    1.000
    C219     C        0.54740    0.66950    0.60000    1.000
    H174     H        0.56000    0.59480    0.55270    1.000
    H175     H        0.91870    0.36840    0.02250    1.000
    C220     C        0.95680    0.27470    0.98420    1.000
    H176     H        0.98310    0.18390    0.97080    1.000
    C221     C        0.29030    0.05210    0.38220    1.000
    C222     C        0.39970    0.21470    0.75580    1.000
    C223     C        0.15450    0.49850    0.72120    1.000
    C224     C        0.30690    0.75990    0.44360    1.000
    C225     C        0.35840    0.01270    0.33120    1.000
    C226     C        0.23680    0.03240    0.40460    1.000
    C227     C        0.38030    0.23450    0.81730    1.000
    C228     C        0.46540    0.20340    0.70830    1.000
    C229     C        0.08710    0.50690    0.73490    1.000
    C230     C        0.20740    0.43540    0.71500    1.000
    C231     C        0.36640    0.71720    0.38560    1.000
    C232     C        0.24850    0.81240    0.44010    1.000
    C233     C        0.37520    0.95560    0.30280    1.000
    H177     H        0.39470    0.02500    0.31500    1.000
    H178     H        0.18850    0.05910    0.43880    1.000
    C234     C        0.25600    0.97500    0.37640    1.000
    C235     C        0.42960    0.23950    0.82890    1.000
    H179     H        0.33320    0.24470    0.85170    1.000
    H180     H        0.47880    0.19070    0.66600    1.000
    C236     C        0.51620    0.20960    0.71820    1.000
    C237     C        0.07380    0.45690    0.73930    1.000
    H181     H        0.04860    0.54930    0.74160    1.000
    H182     H        0.25340    0.42670    0.70830    1.000
    C238     C        0.19390    0.38700    0.71850    1.000
    C239     C        0.36510    0.72940    0.33010    1.000
    H183     H        0.40710    0.68020    0.38510    1.000
    H184     H        0.20690    0.84200    0.47780    1.000
    C240     C        0.25030    0.82170    0.38380    1.000
    N45      N        0.32220    0.93930    0.32590    1.000
    H185     H        0.42270    0.92820    0.26800    1.000
    H186     H        0.22180    0.96030    0.39290    1.000
    N46      N        0.49380    0.22880    0.77990    1.000
    H187     H        0.41740    0.25040    0.87120    1.000
    H188     H        0.56280    0.20100    0.68400    1.000
    N47      N        0.12820    0.39700    0.73020    1.000
    H189     H        0.02730    0.46450    0.74840    1.000
    H190     H        0.23150    0.34430    0.71260    1.000
    N48      N        0.30800    0.78030    0.32950    1.000
    H191     H        0.40580    0.70100    0.29120    1.000
    H192     H        0.21030    0.85790    0.38270    1.000
