# CIF file generated by openbabel 3.1.0, see https://openbabel.org
data_I
_chemical_name_common 'image0'
_cell_length_a 11.87
_cell_length_b 31.338
_cell_length_c 24.763
_cell_angle_alpha 90
_cell_angle_beta 90
_cell_angle_gamma 90
_space_group_name_H-M_alt 'P 1'
_space_group_name_Hall 'P 1'
loop_
    _symmetry_equiv_pos_as_xyz
    x,y,z
loop_
    _atom_site_label
    _atom_site_type_symbol
    _atom_site_fract_x
    _atom_site_fract_y
    _atom_site_fract_z
    _atom_site_occupancy
    O1       O        0.53400    0.20509    0.65440    1.000
    O2       O        0.70640    0.20090    0.62130    1.000
    O3       O        0.75370    0.79973    0.00430    1.000
    O4       O        0.90970    0.79603    0.95200    1.000
    O5       O        0.35070    0.20317    0.58450    1.000
    O6       O        0.37180    0.20484    0.49470    1.000
    C1       C        0.62910    0.18920    0.65180    1.000
    C2       C        0.91270    0.06490    0.82310    1.000
    H1       H        0.95090    0.06360    0.85810    1.000
    H2       H        0.89090    0.09440    0.81540    1.000
    H3       H        0.96370    0.05470    0.79480    1.000
    C3       C        0.51620    0.95500    0.83610    1.000
    H4       H        0.45950    0.96580    0.81080    1.000
    H5       H        0.48530    0.95530    0.87280    1.000
    H6       H        0.53670    0.92570    0.82610    1.000
    C4       C        0.81790    0.81300    0.96710    1.000
    C5       C        0.33380    0.18910    0.53770    1.000
    C6       C        0.05790    0.03776    0.51050    1.000
    C7       C        0.95760    0.02893    0.53760    1.000
    C8       C        0.09980    0.00888    0.47310    1.000
    H7       H        0.16810    0.01490    0.45460    1.000
    C9       C        0.90130    0.05950    0.57880    1.000
    H8       H        0.93780    0.05640    0.61410    1.000
    H9       H        0.82110    0.05250    0.58200    1.000
    H10      H        0.90950    0.08900    0.56630    1.000
    C10      C        0.65380    0.15335    0.69190    1.000
    C11      C        0.74850    0.12773    0.68550    1.000
    H11      H        0.79930    0.13290    0.65650    1.000
    C12      C        0.76860    0.09457    0.72140    1.000
    H12      H        0.83340    0.07710    0.71710    1.000
    C13      C        0.69410    0.08681    0.76400    1.000
    C14      C        0.59970    0.11255    0.77040    1.000
    H13      H        0.54910    0.10750    0.79940    1.000
    C15      C        0.57960    0.14556    0.73440    1.000
    H14      H        0.51490    0.16300    0.73880    1.000
    C16      C        0.70760    0.04781    0.79980    1.000
    C17      C        0.80880    0.03712    0.82450    1.000
    C18      C        0.81570    0.99932    0.85390    1.000
    H15      H        0.88470    0.99180    0.87090    1.000
    C19      C        0.72270    0.97227    0.85860    1.000
    C20      C        0.62130    0.98347    0.83380    1.000
    C21      C        0.61430    0.02123    0.80440    1.000
    H16      H        0.54540    0.02890    0.78740    1.000
    C22      C        0.74120    0.93034    0.88640    1.000
    C23      C        0.83570    0.90656    0.87220    1.000
    H17      H        0.88480    0.91660    0.84470    1.000
    C24      C        0.85860    0.86821    0.89800    1.000
    H18      H        0.92320    0.85210    0.88820    1.000
    C25      C        0.78670    0.85336    0.93840    1.000
    C26      C        0.69210    0.87710    0.95270    1.000
    H19      H        0.64310    0.86700    0.98020    1.000
    C27      C        0.66950    0.91552    0.92670    1.000
    H20      H        0.60500    0.93170    0.93660    1.000
    C28      C        0.25590    0.15123    0.53100    1.000
    C29      C        0.22690    0.12710    0.57590    1.000
    H21      H        0.25190    0.13560    0.61070    1.000
    C30      C        0.16150    0.09060    0.57030    1.000
    H22      H        0.14180    0.07430    0.60120    1.000
    C31      C        0.12490    0.07788    0.51930    1.000
    C32      C        0.15340    0.10230    0.47430    1.000
    H23      H        0.12760    0.09410    0.43960    1.000
    C33      C        0.21910    0.13860    0.47990    1.000
    H24      H        0.23900    0.15490    0.44900    1.000
    O7       O        0.96600    0.79491    0.15440    1.000
    O8       O        0.79360    0.79910    0.12130    1.000
    O9       O        0.74630    0.20027    0.50430    1.000
    O10      O        0.59030    0.20397    0.45200    1.000
    O11      O        0.14930    0.79683    0.08450    1.000
    O12      O        0.12820    0.79516    0.99470    1.000
    C34      C        0.87090    0.81080    0.15180    1.000
    C35      C        0.58730    0.93510    0.32310    1.000
    H25      H        0.54910    0.93640    0.35810    1.000
    H26      H        0.60910    0.90560    0.31540    1.000
    H27      H        0.53630    0.94530    0.29480    1.000
    C36      C        0.98380    0.04500    0.33610    1.000
    H28      H        0.04050    0.03420    0.31080    1.000
    H29      H        0.01470    0.04470    0.37280    1.000
    H30      H        0.96330    0.07430    0.32610    1.000
    C37      C        0.68210    0.18700    0.46710    1.000
    C38      C        0.16620    0.81090    0.03770    1.000
    C39      C        0.44210    0.96224    0.01050    1.000
    C40      C        0.54240    0.97107    0.03760    1.000
    C41      C        0.40020    0.99112    0.97310    1.000
    H31      H        0.33190    0.98510    0.95460    1.000
    C42      C        0.59870    0.94050    0.07880    1.000
    H32      H        0.56220    0.94360    0.11410    1.000
    H33      H        0.67890    0.94750    0.08200    1.000
    H34      H        0.59050    0.91100    0.06630    1.000
    C43      C        0.84620    0.84665    0.19190    1.000
    C44      C        0.75150    0.87227    0.18550    1.000
    H35      H        0.70070    0.86710    0.15650    1.000
    C45      C        0.73140    0.90543    0.22140    1.000
    H36      H        0.66660    0.92290    0.21710    1.000
    C46      C        0.80590    0.91319    0.26400    1.000
    C47      C        0.90030    0.88745    0.27040    1.000
    H37      H        0.95090    0.89250    0.29940    1.000
    C48      C        0.92040    0.85444    0.23440    1.000
    H38      H        0.98510    0.83700    0.23880    1.000
    C49      C        0.79240    0.95219    0.29980    1.000
    C50      C        0.69120    0.96288    0.32450    1.000
    C51      C        0.68430    0.00068    0.35390    1.000
    H39      H        0.61530    0.00820    0.37090    1.000
    C52      C        0.77730    0.02773    0.35860    1.000
    C53      C        0.87870    0.01653    0.33380    1.000
    C54      C        0.88570    0.97877    0.30440    1.000
    H40      H        0.95460    0.97110    0.28740    1.000
    C55      C        0.75880    0.06966    0.38640    1.000
    C56      C        0.66430    0.09344    0.37220    1.000
    H41      H        0.61520    0.08340    0.34470    1.000
    C57      C        0.64140    0.13179    0.39800    1.000
    H42      H        0.57680    0.14790    0.38820    1.000
    C58      C        0.71330    0.14664    0.43840    1.000
    C59      C        0.80790    0.12290    0.45270    1.000
    H43      H        0.85690    0.13300    0.48020    1.000
    C60      C        0.83050    0.08448    0.42670    1.000
    H44      H        0.89500    0.06830    0.43660    1.000
    C61      C        0.24410    0.84877    0.03100    1.000
    C62      C        0.27310    0.87290    0.07590    1.000
    H45      H        0.24810    0.86440    0.11070    1.000
    C63      C        0.33850    0.90940    0.07030    1.000
    H46      H        0.35820    0.92570    0.10120    1.000
    C64      C        0.37510    0.92212    0.01930    1.000
    C65      C        0.34660    0.89770    0.97430    1.000
    H47      H        0.37240    0.90590    0.93960    1.000
    C66      C        0.28090    0.86140    0.97990    1.000
    H48      H        0.26100    0.84510    0.94900    1.000
    O13      O        0.46600    0.70509    0.34560    1.000
    O14      O        0.29360    0.70090    0.37870    1.000
    O15      O        0.24630    0.29973    0.99570    1.000
    O16      O        0.09030    0.29603    0.04800    1.000
    O17      O        0.64930    0.70317    0.41550    1.000
    O18      O        0.62820    0.70484    0.50530    1.000
    C67      C        0.37090    0.68920    0.34820    1.000
    C68      C        0.08730    0.56490    0.17690    1.000
    H49      H        0.04910    0.56360    0.14190    1.000
    H50      H        0.10910    0.59440    0.18460    1.000
    H51      H        0.03630    0.55470    0.20520    1.000
    C69      C        0.48380    0.45500    0.16390    1.000
    H52      H        0.54050    0.46580    0.18920    1.000
    H53      H        0.51470    0.45530    0.12720    1.000
    H54      H        0.46330    0.42570    0.17390    1.000
    C70      C        0.18210    0.31300    0.03290    1.000
    C71      C        0.66620    0.68910    0.46230    1.000
    C72      C        0.94210    0.53776    0.48950    1.000
    C73      C        0.04240    0.52893    0.46240    1.000
    C74      C        0.90020    0.50888    0.52690    1.000
    H55      H        0.83190    0.51490    0.54540    1.000
    C75      C        0.09870    0.55950    0.42120    1.000
    H56      H        0.06220    0.55640    0.38590    1.000
    H57      H        0.17890    0.55250    0.41800    1.000
    H58      H        0.09050    0.58900    0.43370    1.000
    C76      C        0.34620    0.65335    0.30810    1.000
    C77      C        0.25150    0.62773    0.31450    1.000
    H59      H        0.20070    0.63290    0.34350    1.000
    C78      C        0.23140    0.59457    0.27860    1.000
    H60      H        0.16660    0.57710    0.28290    1.000
    C79      C        0.30590    0.58681    0.23600    1.000
    C80      C        0.40030    0.61255    0.22960    1.000
    H61      H        0.45090    0.60750    0.20060    1.000
    C81      C        0.42040    0.64556    0.26560    1.000
    H62      H        0.48510    0.66300    0.26120    1.000
    C82      C        0.29240    0.54781    0.20020    1.000
    C83      C        0.19120    0.53712    0.17550    1.000
    C84      C        0.18430    0.49932    0.14610    1.000
    H63      H        0.11530    0.49180    0.12910    1.000
    C85      C        0.27730    0.47227    0.14140    1.000
    C86      C        0.37870    0.48347    0.16620    1.000
    C87      C        0.38570    0.52123    0.19560    1.000
    H64      H        0.45460    0.52890    0.21260    1.000
    C88      C        0.25880    0.43034    0.11360    1.000
    C89      C        0.16430    0.40656    0.12780    1.000
    H65      H        0.11520    0.41660    0.15530    1.000
    C90      C        0.14140    0.36821    0.10200    1.000
    H66      H        0.07680    0.35210    0.11180    1.000
    C91      C        0.21330    0.35336    0.06160    1.000
    C92      C        0.30790    0.37710    0.04730    1.000
    H67      H        0.35690    0.36700    0.01980    1.000
    C93      C        0.33050    0.41552    0.07330    1.000
    H68      H        0.39500    0.43170    0.06340    1.000
    C94      C        0.74410    0.65123    0.46900    1.000
    C95      C        0.77310    0.62710    0.42410    1.000
    H69      H        0.74810    0.63560    0.38930    1.000
    C96      C        0.83850    0.59060    0.42970    1.000
    H70      H        0.85820    0.57430    0.39880    1.000
    C97      C        0.87510    0.57788    0.48070    1.000
    C98      C        0.84660    0.60230    0.52570    1.000
    H71      H        0.87240    0.59410    0.56040    1.000
    C99      C        0.78090    0.63860    0.52010    1.000
    H72      H        0.76100    0.65490    0.55100    1.000
    O19      O        0.03400    0.29491    0.84560    1.000
    O20      O        0.20640    0.29910    0.87870    1.000
    O21      O        0.25370    0.70027    0.49570    1.000
    O22      O        0.40970    0.70397    0.54800    1.000
    O23      O        0.85070    0.29683    0.91550    1.000
    O24      O        0.87180    0.29516    0.00530    1.000
    C100     C        0.12910    0.31080    0.84820    1.000
    C101     C        0.41270    0.43510    0.67690    1.000
    H73      H        0.45090    0.43640    0.64190    1.000
    H74      H        0.39090    0.40560    0.68460    1.000
    H75      H        0.46370    0.44530    0.70520    1.000
    C102     C        0.01620    0.54500    0.66390    1.000
    H76      H        0.95950    0.53420    0.68920    1.000
    H77      H        0.98530    0.54470    0.62720    1.000
    H78      H        0.03670    0.57430    0.67390    1.000
    C103     C        0.31790    0.68700    0.53290    1.000
    C104     C        0.83380    0.31090    0.96230    1.000
    C105     C        0.55790    0.46224    0.98950    1.000
    C106     C        0.45760    0.47107    0.96240    1.000
    C107     C        0.59980    0.49112    0.02690    1.000
    H79      H        0.66810    0.48510    0.04540    1.000
    C108     C        0.40130    0.44050    0.92120    1.000
    H80      H        0.43780    0.44360    0.88590    1.000
    H81      H        0.32110    0.44750    0.91800    1.000
    H82      H        0.40950    0.41100    0.93370    1.000
    C109     C        0.15380    0.34665    0.80810    1.000
    C110     C        0.24850    0.37227    0.81450    1.000
    H83      H        0.29930    0.36710    0.84350    1.000
    C111     C        0.26860    0.40543    0.77860    1.000
    H84      H        0.33340    0.42290    0.78290    1.000
    C112     C        0.19410    0.41319    0.73600    1.000
    C113     C        0.09970    0.38745    0.72960    1.000
    H85      H        0.04910    0.39250    0.70060    1.000
    C114     C        0.07960    0.35444    0.76560    1.000
    H86      H        0.01490    0.33700    0.76120    1.000
    C115     C        0.20760    0.45219    0.70020    1.000
    C116     C        0.30880    0.46288    0.67550    1.000
    C117     C        0.31570    0.50068    0.64610    1.000
    H87      H        0.38470    0.50820    0.62910    1.000
    C118     C        0.22270    0.52773    0.64140    1.000
    C119     C        0.12130    0.51653    0.66620    1.000
    C120     C        0.11430    0.47877    0.69560    1.000
    H88      H        0.04540    0.47110    0.71260    1.000
    C121     C        0.24120    0.56966    0.61360    1.000
    C122     C        0.33570    0.59344    0.62780    1.000
    H89      H        0.38480    0.58340    0.65530    1.000
    C123     C        0.35860    0.63179    0.60200    1.000
    H90      H        0.42320    0.64790    0.61180    1.000
    C124     C        0.28670    0.64664    0.56160    1.000
    C125     C        0.19210    0.62290    0.54730    1.000
    H91      H        0.14310    0.63300    0.51980    1.000
    C126     C        0.16950    0.58448    0.57330    1.000
    H92      H        0.10500    0.56830    0.56340    1.000
    C127     C        0.75590    0.34877    0.96900    1.000
    C128     C        0.72690    0.37290    0.92410    1.000
    H93      H        0.75190    0.36440    0.88930    1.000
    C129     C        0.66150    0.40940    0.92970    1.000
    H94      H        0.64180    0.42570    0.89880    1.000
    C130     C        0.62490    0.42212    0.98070    1.000
    C131     C        0.65340    0.39770    0.02570    1.000
    H95      H        0.62760    0.40590    0.06040    1.000
    C132     C        0.71910    0.36140    0.02010    1.000
    H96      H        0.73900    0.34510    0.05100    1.000
    O25      O        0.46600    0.79491    0.34560    1.000
    O26      O        0.29360    0.79910    0.37870    1.000
    O27      O        0.24630    0.20027    0.99570    1.000
    O28      O        0.09030    0.20397    0.04800    1.000
    O29      O        0.64930    0.79683    0.41550    1.000
    O30      O        0.62820    0.79516    0.50530    1.000
    C133     C        0.37090    0.81080    0.34820    1.000
    C134     C        0.08730    0.93510    0.17690    1.000
    H97      H        0.04910    0.93640    0.14190    1.000
    H98      H        0.10910    0.90560    0.18460    1.000
    H99      H        0.03630    0.94530    0.20520    1.000
    C135     C        0.48380    0.04500    0.16390    1.000
    H100     H        0.54050    0.03420    0.18920    1.000
    H101     H        0.51470    0.04470    0.12720    1.000
    H102     H        0.46330    0.07430    0.17390    1.000
    C136     C        0.18210    0.18700    0.03290    1.000
    C137     C        0.66620    0.81090    0.46230    1.000
    C138     C        0.94210    0.96224    0.48950    1.000
    C139     C        0.04240    0.97107    0.46240    1.000
    C140     C        0.90020    0.99112    0.52690    1.000
    H103     H        0.83190    0.98510    0.54540    1.000
    C141     C        0.09870    0.94050    0.42120    1.000
    H104     H        0.06220    0.94360    0.38590    1.000
    H105     H        0.17890    0.94750    0.41800    1.000
    H106     H        0.09050    0.91100    0.43370    1.000
    C142     C        0.34620    0.84665    0.30810    1.000
    C143     C        0.25150    0.87227    0.31450    1.000
    H107     H        0.20070    0.86710    0.34350    1.000
    C144     C        0.23140    0.90543    0.27860    1.000
    H108     H        0.16660    0.92290    0.28290    1.000
    C145     C        0.30590    0.91319    0.23600    1.000
    C146     C        0.40030    0.88745    0.22960    1.000
    H109     H        0.45090    0.89250    0.20060    1.000
    C147     C        0.42040    0.85444    0.26560    1.000
    H110     H        0.48510    0.83700    0.26120    1.000
    C148     C        0.29240    0.95219    0.20020    1.000
    C149     C        0.19120    0.96288    0.17550    1.000
    C150     C        0.18430    0.00068    0.14610    1.000
    H111     H        0.11530    0.00820    0.12910    1.000
    C151     C        0.27730    0.02773    0.14140    1.000
    C152     C        0.37870    0.01653    0.16620    1.000
    C153     C        0.38570    0.97877    0.19560    1.000
    H112     H        0.45460    0.97110    0.21260    1.000
    C154     C        0.25880    0.06966    0.11360    1.000
    C155     C        0.16430    0.09344    0.12780    1.000
    H113     H        0.11520    0.08340    0.15530    1.000
    C156     C        0.14140    0.13179    0.10200    1.000
    H114     H        0.07680    0.14790    0.11180    1.000
    C157     C        0.21330    0.14664    0.06160    1.000
    C158     C        0.30790    0.12290    0.04730    1.000
    H115     H        0.35690    0.13300    0.01980    1.000
    C159     C        0.33050    0.08448    0.07330    1.000
    H116     H        0.39500    0.06830    0.06340    1.000
    C160     C        0.74410    0.84877    0.46900    1.000
    C161     C        0.77310    0.87290    0.42410    1.000
    H117     H        0.74810    0.86440    0.38930    1.000
    C162     C        0.83850    0.90940    0.42970    1.000
    H118     H        0.85820    0.92570    0.39880    1.000
    C163     C        0.87510    0.92212    0.48070    1.000
    C164     C        0.84660    0.89770    0.52570    1.000
    H119     H        0.87240    0.90590    0.56040    1.000
    C165     C        0.78090    0.86140    0.52010    1.000
    H120     H        0.76100    0.84510    0.55100    1.000
    O31      O        0.03400    0.20509    0.84560    1.000
    O32      O        0.20640    0.20090    0.87870    1.000
    O33      O        0.25370    0.79973    0.49570    1.000
    O34      O        0.40970    0.79603    0.54800    1.000
    O35      O        0.85070    0.20317    0.91550    1.000
    O36      O        0.87180    0.20484    0.00530    1.000
    C166     C        0.12910    0.18920    0.84820    1.000
    C167     C        0.41270    0.06490    0.67690    1.000
    H121     H        0.45090    0.06360    0.64190    1.000
    H122     H        0.39090    0.09440    0.68460    1.000
    H123     H        0.46370    0.05470    0.70520    1.000
    C168     C        0.01620    0.95500    0.66390    1.000
    H124     H        0.95950    0.96580    0.68920    1.000
    H125     H        0.98530    0.95530    0.62720    1.000
    H126     H        0.03670    0.92570    0.67390    1.000
    C169     C        0.31790    0.81300    0.53290    1.000
    C170     C        0.83380    0.18910    0.96230    1.000
    C171     C        0.55790    0.03776    0.98950    1.000
    C172     C        0.45760    0.02893    0.96240    1.000
    C173     C        0.59980    0.00888    0.02690    1.000
    H127     H        0.66810    0.01490    0.04540    1.000
    C174     C        0.40130    0.05950    0.92120    1.000
    H128     H        0.43780    0.05640    0.88590    1.000
    H129     H        0.32110    0.05250    0.91800    1.000
    H130     H        0.40950    0.08900    0.93370    1.000
    C175     C        0.15380    0.15335    0.80810    1.000
    C176     C        0.24850    0.12773    0.81450    1.000
    H131     H        0.29930    0.13290    0.84350    1.000
    C177     C        0.26860    0.09457    0.77860    1.000
    H132     H        0.33340    0.07710    0.78290    1.000
    C178     C        0.19410    0.08681    0.73600    1.000
    C179     C        0.09970    0.11255    0.72960    1.000
    H133     H        0.04910    0.10750    0.70060    1.000
    C180     C        0.07960    0.14556    0.76560    1.000
    H134     H        0.01490    0.16300    0.76120    1.000
    C181     C        0.20760    0.04781    0.70020    1.000
    C182     C        0.30880    0.03712    0.67550    1.000
    C183     C        0.31570    0.99932    0.64610    1.000
    H135     H        0.38470    0.99180    0.62910    1.000
    C184     C        0.22270    0.97227    0.64140    1.000
    C185     C        0.12130    0.98347    0.66620    1.000
    C186     C        0.11430    0.02123    0.69560    1.000
    H136     H        0.04540    0.02890    0.71260    1.000
    C187     C        0.24120    0.93034    0.61360    1.000
    C188     C        0.33570    0.90656    0.62780    1.000
    H137     H        0.38480    0.91660    0.65530    1.000
    C189     C        0.35860    0.86821    0.60200    1.000
    H138     H        0.42320    0.85210    0.61180    1.000
    C190     C        0.28670    0.85336    0.56160    1.000
    C191     C        0.19210    0.87710    0.54730    1.000
    H139     H        0.14310    0.86700    0.51980    1.000
    C192     C        0.16950    0.91552    0.57330    1.000
    H140     H        0.10500    0.93170    0.56340    1.000
    C193     C        0.75590    0.15123    0.96900    1.000
    C194     C        0.72690    0.12710    0.92410    1.000
    H141     H        0.75190    0.13560    0.88930    1.000
    C195     C        0.66150    0.09060    0.92970    1.000
    H142     H        0.64180    0.07430    0.89880    1.000
    C196     C        0.62490    0.07788    0.98070    1.000
    C197     C        0.65340    0.10230    0.02570    1.000
    H143     H        0.62760    0.09410    0.06040    1.000
    C198     C        0.71910    0.13860    0.02010    1.000
    H144     H        0.73900    0.15490    0.05100    1.000
    O37      O        0.53400    0.29491    0.65440    1.000
    O38      O        0.70640    0.29910    0.62130    1.000
    O39      O        0.75370    0.70027    0.00430    1.000
    O40      O        0.90970    0.70397    0.95200    1.000
    O41      O        0.35070    0.29683    0.58450    1.000
    O42      O        0.37180    0.29516    0.49470    1.000
    C199     C        0.62910    0.31080    0.65180    1.000
    C200     C        0.91270    0.43510    0.82310    1.000
    H145     H        0.95090    0.43640    0.85810    1.000
    H146     H        0.89090    0.40560    0.81540    1.000
    H147     H        0.96370    0.44530    0.79480    1.000
    C201     C        0.51620    0.54500    0.83610    1.000
    H148     H        0.45950    0.53420    0.81080    1.000
    H149     H        0.48530    0.54470    0.87280    1.000
    H150     H        0.53670    0.57430    0.82610    1.000
    C202     C        0.81790    0.68700    0.96710    1.000
    C203     C        0.33380    0.31090    0.53770    1.000
    C204     C        0.05790    0.46224    0.51050    1.000
    C205     C        0.95760    0.47107    0.53760    1.000
    C206     C        0.09980    0.49112    0.47310    1.000
    H151     H        0.16810    0.48510    0.45460    1.000
    C207     C        0.90130    0.44050    0.57880    1.000
    H152     H        0.93780    0.44360    0.61410    1.000
    H153     H        0.82110    0.44750    0.58200    1.000
    H154     H        0.90950    0.41100    0.56630    1.000
    C208     C        0.65380    0.34665    0.69190    1.000
    C209     C        0.74850    0.37227    0.68550    1.000
    H155     H        0.79930    0.36710    0.65650    1.000
    C210     C        0.76860    0.40543    0.72140    1.000
    H156     H        0.83340    0.42290    0.71710    1.000
    C211     C        0.69410    0.41319    0.76400    1.000
    C212     C        0.59970    0.38745    0.77040    1.000
    H157     H        0.54910    0.39250    0.79940    1.000
    C213     C        0.57960    0.35444    0.73440    1.000
    H158     H        0.51490    0.33700    0.73880    1.000
    C214     C        0.70760    0.45219    0.79980    1.000
    C215     C        0.80880    0.46288    0.82450    1.000
    C216     C        0.81570    0.50068    0.85390    1.000
    H159     H        0.88470    0.50820    0.87090    1.000
    C217     C        0.72270    0.52773    0.85860    1.000
    C218     C        0.62130    0.51653    0.83380    1.000
    C219     C        0.61430    0.47877    0.80440    1.000
    H160     H        0.54540    0.47110    0.78740    1.000
    C220     C        0.74120    0.56966    0.88640    1.000
    C221     C        0.83570    0.59344    0.87220    1.000
    H161     H        0.88480    0.58340    0.84470    1.000
    C222     C        0.85860    0.63179    0.89800    1.000
    H162     H        0.92320    0.64790    0.88820    1.000
    C223     C        0.78670    0.64664    0.93840    1.000
    C224     C        0.69210    0.62290    0.95270    1.000
    H163     H        0.64310    0.63300    0.98020    1.000
    C225     C        0.66950    0.58448    0.92670    1.000
    H164     H        0.60500    0.56830    0.93660    1.000
    C226     C        0.25590    0.34877    0.53100    1.000
    C227     C        0.22690    0.37290    0.57590    1.000
    H165     H        0.25190    0.36440    0.61070    1.000
    C228     C        0.16150    0.40940    0.57030    1.000
    H166     H        0.14180    0.42570    0.60120    1.000
    C229     C        0.12490    0.42212    0.51930    1.000
    C230     C        0.15340    0.39770    0.47430    1.000
    H167     H        0.12760    0.40590    0.43960    1.000
    C231     C        0.21910    0.36140    0.47990    1.000
    H168     H        0.23900    0.34510    0.44900    1.000
    O43      O        0.96600    0.70509    0.15440    1.000
    O44      O        0.79360    0.70090    0.12130    1.000
    O45      O        0.74630    0.29973    0.50430    1.000
    O46      O        0.59030    0.29603    0.45200    1.000
    O47      O        0.14930    0.70317    0.08450    1.000
    O48      O        0.12820    0.70484    0.99470    1.000
    C232     C        0.87090    0.68920    0.15180    1.000
    C233     C        0.58730    0.56490    0.32310    1.000
    H169     H        0.54910    0.56360    0.35810    1.000
    H170     H        0.60910    0.59440    0.31540    1.000
    H171     H        0.53630    0.55470    0.29480    1.000
    C234     C        0.98380    0.45500    0.33610    1.000
    H172     H        0.04050    0.46580    0.31080    1.000
    H173     H        0.01470    0.45530    0.37280    1.000
    H174     H        0.96330    0.42570    0.32610    1.000
    C235     C        0.68210    0.31300    0.46710    1.000
    C236     C        0.16620    0.68910    0.03770    1.000
    C237     C        0.44210    0.53776    0.01050    1.000
    C238     C        0.54240    0.52893    0.03760    1.000
    C239     C        0.40020    0.50888    0.97310    1.000
    H175     H        0.33190    0.51490    0.95460    1.000
    C240     C        0.59870    0.55950    0.07880    1.000
    H176     H        0.56220    0.55640    0.11410    1.000
    H177     H        0.67890    0.55250    0.08200    1.000
    H178     H        0.59050    0.58900    0.06630    1.000
    C241     C        0.84620    0.65335    0.19190    1.000
    C242     C        0.75150    0.62773    0.18550    1.000
    H179     H        0.70070    0.63290    0.15650    1.000
    C243     C        0.73140    0.59457    0.22140    1.000
    H180     H        0.66660    0.57710    0.21710    1.000
    C244     C        0.80590    0.58681    0.26400    1.000
    C245     C        0.90030    0.61255    0.27040    1.000
    H181     H        0.95090    0.60750    0.29940    1.000
    C246     C        0.92040    0.64556    0.23440    1.000
    H182     H        0.98510    0.66300    0.23880    1.000
    C247     C        0.79240    0.54781    0.29980    1.000
    C248     C        0.69120    0.53712    0.32450    1.000
    C249     C        0.68430    0.49932    0.35390    1.000
    H183     H        0.61530    0.49180    0.37090    1.000
    C250     C        0.77730    0.47227    0.35860    1.000
    C251     C        0.87870    0.48347    0.33380    1.000
    C252     C        0.88570    0.52123    0.30440    1.000
    H184     H        0.95460    0.52890    0.28740    1.000
    C253     C        0.75880    0.43034    0.38640    1.000
    C254     C        0.66430    0.40656    0.37220    1.000
    H185     H        0.61520    0.41660    0.34470    1.000
    C255     C        0.64140    0.36821    0.39800    1.000
    H186     H        0.57680    0.35210    0.38820    1.000
    C256     C        0.71330    0.35336    0.43840    1.000
    C257     C        0.80790    0.37710    0.45270    1.000
    H187     H        0.85690    0.36700    0.48020    1.000
    C258     C        0.83050    0.41552    0.42670    1.000
    H188     H        0.89500    0.43170    0.43660    1.000
    C259     C        0.24410    0.65123    0.03100    1.000
    C260     C        0.27310    0.62710    0.07590    1.000
    H189     H        0.24810    0.63560    0.11070    1.000
    C261     C        0.33850    0.59060    0.07030    1.000
    H190     H        0.35820    0.57430    0.10120    1.000
    C262     C        0.37510    0.57788    0.01930    1.000
    C263     C        0.34660    0.60230    0.97430    1.000
    H191     H        0.37240    0.59410    0.93960    1.000
    C264     C        0.28090    0.63860    0.97990    1.000
    H192     H        0.26100    0.65490    0.94900    1.000
    Fe1      Fe       0.45453    0.25000    0.61115    1.000
    Fe2      Fe       0.71491    0.25000    0.56166    1.000
    Fe3      Fe       0.49182    0.25000    0.48104    1.000
    O49      O        0.54910    0.25000    0.55170    1.000
    Fe4      Fe       0.04547    0.75000    0.11115    1.000
    Fe5      Fe       0.78509    0.75000    0.06166    1.000
    Fe6      Fe       0.00818    0.75000    0.98104    1.000
    O50      O        0.95090    0.75000    0.05170    1.000
    Fe7      Fe       0.54547    0.75000    0.38885    1.000
    Fe8      Fe       0.28509    0.75000    0.43834    1.000
    Fe9      Fe       0.50818    0.75000    0.51896    1.000
    O51      O        0.45090    0.75000    0.44830    1.000
    Fe10     Fe       0.95453    0.25000    0.88885    1.000
    Fe11     Fe       0.21491    0.25000    0.93834    1.000
    Fe12     Fe       0.99182    0.25000    0.01896    1.000
    O52      O        0.04910    0.25000    0.94830    1.000
