# CIF file generated by openbabel 3.1.0, see https://openbabel.org
data_I
_chemical_name_common 'YEGKOM_clean'
_cell_length_a 10.204
_cell_length_b 10.204
_cell_length_c 13.0998
_cell_angle_alpha 90
_cell_angle_beta 90
_cell_angle_gamma 90
_space_group_name_H-M_alt 'P 1'
_space_group_name_Hall 'P 1'
loop_
    _symmetry_equiv_pos_as_xyz
    x,y,z
loop_
    _atom_site_label
    _atom_site_type_symbol
    _atom_site_fract_x
    _atom_site_fract_y
    _atom_site_fract_z
    _atom_site_occupancy
    Zn1      Zn       0.73031    0.73031    0.50000    1.000
    Zn2      Zn       0.26969    0.26969    0.00000    1.000
    Zn3      Zn       0.76969    0.23031    0.75000    1.000
    Zn4      Zn       0.23031    0.76969    0.25000    1.000
    H1       H        0.62150    0.45320    0.44760    1.000
    H2       H        0.86910    0.51150    0.76650    1.000
    H3       H        0.85790    0.63620    0.70810    1.000
    H4       H        0.37850    0.54680    0.94760    1.000
    H5       H        0.13090    0.48850    0.26650    1.000
    H6       H        0.14210    0.36380    0.20810    1.000
    H7       H        0.04680    0.12150    0.69760    1.000
    H8       H        0.98850    0.36910    0.01650    1.000
    H9       H        0.86380    0.35790    0.95810    1.000
    H10      H        0.95320    0.87850    0.19760    1.000
    H11      H        0.01150    0.63090    0.51650    1.000
    H12      H        0.13620    0.64210    0.45810    1.000
    H13      H        0.87850    0.95320    0.80240    1.000
    H14      H        0.63090    0.01150    0.48350    1.000
    H15      H        0.64210    0.13620    0.54190    1.000
    H16      H        0.12150    0.04680    0.30240    1.000
    H17      H        0.36910    0.98850    0.98350    1.000
    H18      H        0.35790    0.86380    0.04190    1.000
    H19      H        0.45320    0.62150    0.55240    1.000
    H20      H        0.51150    0.86910    0.23350    1.000
    H21      H        0.63620    0.85790    0.29190    1.000
    H22      H        0.54680    0.37850    0.05240    1.000
    H23      H        0.48850    0.13090    0.73350    1.000
    H24      H        0.36380    0.14210    0.79190    1.000
    C1       C        0.77130    0.49100    0.64020    1.000
    C2       C        0.66490    0.44600    0.50980    1.000
    C3       C        0.22870    0.50900    0.14020    1.000
    C4       C        0.33510    0.55400    0.00980    1.000
    C5       C        0.00900    0.27130    0.89020    1.000
    C6       C        0.05400    0.16490    0.75980    1.000
    C7       C        0.99100    0.72870    0.39020    1.000
    C8       C        0.94600    0.83510    0.25980    1.000
    C9       C        0.72870    0.99100    0.60980    1.000
    C10      C        0.83510    0.94600    0.74020    1.000
    C11      C        0.27130    0.00900    0.10980    1.000
    C12      C        0.16490    0.05400    0.24020    1.000
    C13      C        0.49100    0.77130    0.35980    1.000
    C14      C        0.44600    0.66490    0.49020    1.000
    C15      C        0.50900    0.22870    0.85980    1.000
    C16      C        0.55400    0.33510    0.99020    1.000
    N1       N        0.72590    0.54800    0.55770    1.000
    N2       N        0.74740    0.36670    0.65040    1.000
    N3       N        0.67430    0.33700    0.56090    1.000
    N4       N        0.84140    0.55400    0.71410    1.000
    N5       N        0.27410    0.45200    0.05770    1.000
    N6       N        0.25260    0.63330    0.15040    1.000
    N7       N        0.32570    0.66300    0.06090    1.000
    N8       N        0.15860    0.44600    0.21410    1.000
    N9       N        0.95200    0.22590    0.80770    1.000
    N10      N        0.13330    0.24740    0.90040    1.000
    N11      N        0.16300    0.17430    0.81090    1.000
    N12      N        0.94600    0.34140    0.96410    1.000
    N13      N        0.04800    0.77410    0.30770    1.000
    N14      N        0.86670    0.75260    0.40040    1.000
    N15      N        0.83700    0.82570    0.31090    1.000
    N16      N        0.05400    0.65860    0.46410    1.000
    N17      N        0.77410    0.04800    0.69230    1.000
    N18      N        0.75260    0.86670    0.59960    1.000
    N19      N        0.82570    0.83700    0.68910    1.000
    N20      N        0.65860    0.05400    0.53590    1.000
    N21      N        0.22590    0.95200    0.19230    1.000
    N22      N        0.24740    0.13330    0.09960    1.000
    N23      N        0.17430    0.16300    0.18910    1.000
    N24      N        0.34140    0.94600    0.03590    1.000
    N25      N        0.54800    0.72590    0.44230    1.000
    N26      N        0.36670    0.74740    0.34960    1.000
    N27      N        0.33700    0.67430    0.43910    1.000
    N28      N        0.55400    0.84140    0.28590    1.000
    N29      N        0.45200    0.27410    0.94230    1.000
    N30      N        0.63330    0.25260    0.84960    1.000
    N31      N        0.66300    0.32570    0.93910    1.000
    N32      N        0.44600    0.15860    0.78590    1.000
