# CIF file generated by openbabel 3.1.0, see https://openbabel.org
data_I
_chemical_name_common 'image0'
_cell_length_a 9.3411
_cell_length_b 9.3411
_cell_length_c 6.9932
_cell_angle_alpha 90
_cell_angle_beta 90
_cell_angle_gamma 120
_space_group_name_H-M_alt 'P 1'
_space_group_name_Hall 'P 1'
loop_
    _symmetry_equiv_pos_as_xyz
    x,y,z
loop_
    _atom_site_label
    _atom_site_type_symbol
    _atom_site_fract_x
    _atom_site_fract_y
    _atom_site_fract_z
    _atom_site_occupancy
    Al1      Al       0.64075    0.16199    0.22307    1.000
    O1       O        0.57110    0.30140    0.12710    1.000
    H1       H        0.55350    0.36790    0.19820    1.000
    O2       O        0.85150    0.27850    0.12600    1.000
    O3       O        0.03290    0.56560    0.99700    1.000
    Al2      Al       0.83801    0.47876    0.55640    1.000
    O4       O        0.69860    0.26970    0.46043    1.000
    H2       H        0.63210    0.18560    0.53153    1.000
    O5       O        0.72150    0.57300    0.45933    1.000
    O6       O        0.43440    0.46730    0.33033    1.000
    Al3      Al       0.52124    0.35925    0.88974    1.000
    O7       O        0.73030    0.42890    0.79377    1.000
    H3       H        0.81440    0.44650    0.86487    1.000
    O8       O        0.42700    0.14850    0.79267    1.000
    O9       O        0.53270    0.96710    0.66367    1.000
    Al4      Al       0.16199    0.64075    0.77693    1.000
    O10      O        0.30140    0.57110    0.87290    1.000
    H4       H        0.36790    0.55350    0.80180    1.000
    O11      O        0.27850    0.85150    0.87400    1.000
    O12      O        0.56560    0.03290    0.00300    1.000
    Al5      Al       0.47876    0.83801    0.44360    1.000
    O13      O        0.26970    0.69860    0.53957    1.000
    H5       H        0.18560    0.63210    0.46847    1.000
    O14      O        0.57300    0.72150    0.54067    1.000
    O15      O        0.46730    0.43440    0.66967    1.000
    Al6      Al       0.35925    0.52124    0.11026    1.000
    O16      O        0.42890    0.73030    0.20623    1.000
    H6       H        0.44650    0.81440    0.13513    1.000
    O17      O        0.14850    0.42700    0.20733    1.000
    O18      O        0.96710    0.53270    0.33633    1.000
    P1       P        0.00000    0.44936    0.16667    1.000
    P2       P        0.55064    0.55064    0.50000    1.000
    P3       P        0.44936    0.00000    0.83333    1.000
    F1       F        0.68220    0.00000    0.33333    1.000
    F2       F        0.43170    0.00000    0.33333    1.000
    F3       F        0.00000    0.68220    0.66667    1.000
    F4       F        0.00000    0.43170    0.66667    1.000
    F5       F        0.31780    0.31780    0.00000    1.000
    F6       F        0.56830    0.56830    0.00000    1.000
