# CIF file generated by openbabel 3.1.0, see https://openbabel.org
data_I
_chemical_name_common 'PERSEM_clean'
_cell_length_a 6.3057
_cell_length_b 8.3529
_cell_length_c 9.1064
_cell_angle_alpha 98.2
_cell_angle_beta 91.28
_cell_angle_gamma 103.2
_space_group_name_H-M_alt 'P 1'
_space_group_name_Hall 'P 1'
loop_
    _symmetry_equiv_pos_as_xyz
    x,y,z
loop_
    _atom_site_label
    _atom_site_type_symbol
    _atom_site_fract_x
    _atom_site_fract_y
    _atom_site_fract_z
    _atom_site_occupancy
    U1       U        0.50000    0.50000    0.00000    1.000
    Zn1      Zn       0.00000    0.50000    0.50000    1.000
    H1       H        0.59300    0.95800    0.25500    1.000
    H2       H        0.40700    0.04200    0.74500    1.000
    C1       C        0.13220    0.29120    0.22960    1.000
    C2       C        0.06030    0.13680    0.11270    1.000
    C3       C        0.77350    0.26900    0.01840    1.000
    C4       C        0.34970    0.02070    0.21900    1.000
    C5       C        0.17130    0.00920    0.10310    1.000
    C6       C        0.88830    0.12780    0.01040    1.000
    C7       C        0.86780    0.70880    0.77040    1.000
    C8       C        0.93970    0.86320    0.88730    1.000
    C9       C        0.22650    0.73100    0.98160    1.000
    C10      C        0.65030    0.97930    0.78100    1.000
    C11      C        0.82870    0.99080    0.89690    1.000
    C12      C        0.11170    0.87220    0.98960    1.000
    O1       O        0.35180    0.09950    0.34250    1.000
    O2       O        0.02000    0.29910    0.34065    1.000
    O3       O        0.49510    0.93940    0.17530    1.000
    O4       O        0.29260    0.40182    0.20554    1.000
    O5       O        0.64570    0.29020    0.11866    1.000
    O6       O        0.80720    0.36540    0.92294    1.000
    O7       O        0.64820    0.90050    0.65750    1.000
    O8       O        0.98000    0.70090    0.65935    1.000
    O9       O        0.50490    0.06060    0.82470    1.000
    O10      O        0.70740    0.59818    0.79446    1.000
    O11      O        0.35430    0.70980    0.88134    1.000
    O12      O        0.19280    0.63460    0.07706    1.000
