# CIF file generated by openbabel 3.1.0, see https://openbabel.org
data_I
_chemical_name_common 'image0'
_cell_length_a 12.389
_cell_length_b 14.923
_cell_length_c 9.386
_cell_angle_alpha 90
_cell_angle_beta 98.699
_cell_angle_gamma 90
_space_group_name_H-M_alt 'P 1'
_space_group_name_Hall 'P 1'
loop_
    _symmetry_equiv_pos_as_xyz
    x,y,z
loop_
    _atom_site_label
    _atom_site_type_symbol
    _atom_site_fract_x
    _atom_site_fract_y
    _atom_site_fract_z
    _atom_site_occupancy
    P1       P        0.19303    0.17320    0.87670    1.000
    P2       P        0.15605    0.81553    0.78720    1.000
    P3       P        0.52999    0.17600    0.29650    1.000
    P4       P        0.24592    0.96490    0.17220    1.000
    Al1      Al       0.27376    0.16899    0.20350    1.000
    Al2      Al       0.05654    0.66957    0.56040    1.000
    Al3      Al       0.35496    0.81160    0.37380    1.000
    Mg1      Mg       0.32330    0.98471    0.84140    1.000
    O1       O        0.22390    0.06080    0.22410    1.000
    O2       O        0.06060    0.82260    0.87610    1.000
    O3       O        0.11260    0.76600    0.64730    1.000
    O4       O        0.26810    0.19280    0.02020    1.000
    O5       O        0.31130    0.96290    0.05030    1.000
    O6       O        0.19300    0.90800    0.74950    1.000
    O7       O        0.40740    0.17660    0.29140    1.000
    O8       O        0.24460    0.76130    0.87870    1.000
    O9       O        0.56090    0.26930    0.24320    1.000
    O10      O        0.19000    0.25940    0.78410    1.000
    O11      O        0.07610    0.15630    0.90910    1.000
    O12      O        0.30290    0.91520    0.30570    1.000
    O13      O        0.12950    0.92320    0.13380    1.000
    O14      O        0.23060    0.09410    0.79760    1.000
    O15      O        0.58060    0.16840    0.45410    1.000
    O16      O        0.56820    0.10220    0.20760    1.000
    P5       P        0.80697    0.67320    0.62330    1.000
    P6       P        0.84395    0.31553    0.71280    1.000
    P7       P        0.47001    0.67600    0.20350    1.000
    P8       P        0.75408    0.46490    0.32780    1.000
    Al4      Al       0.72624    0.66899    0.29650    1.000
    Al5      Al       0.94346    0.16957    0.93960    1.000
    Al6      Al       0.64504    0.31160    0.12620    1.000
    Mg2      Mg       0.67670    0.48471    0.65860    1.000
    O17      O        0.77610    0.56080    0.27590    1.000
    O18      O        0.93940    0.32260    0.62390    1.000
    O19      O        0.88740    0.26600    0.85270    1.000
    O20      O        0.73190    0.69280    0.47980    1.000
    O21      O        0.68870    0.46290    0.44970    1.000
    O22      O        0.80700    0.40800    0.75050    1.000
    O23      O        0.59260    0.67660    0.20860    1.000
    O24      O        0.75540    0.26130    0.62130    1.000
    O25      O        0.43910    0.76930    0.25680    1.000
    O26      O        0.81000    0.75940    0.71590    1.000
    O27      O        0.92390    0.65630    0.59090    1.000
    O28      O        0.69710    0.41520    0.19430    1.000
    O29      O        0.87050    0.42320    0.36620    1.000
    O30      O        0.76940    0.59410    0.70240    1.000
    O31      O        0.41940    0.66840    0.04590    1.000
    O32      O        0.43180    0.60220    0.29240    1.000
    P9       P        0.80697    0.82680    0.12330    1.000
    P10      P        0.84395    0.18447    0.21280    1.000
    P11      P        0.47001    0.82400    0.70350    1.000
    P12      P        0.75408    0.03510    0.82780    1.000
    Al7      Al       0.72624    0.83101    0.79650    1.000
    Al8      Al       0.94346    0.33043    0.43960    1.000
    Al9      Al       0.64504    0.18840    0.62620    1.000
    Mg3      Mg       0.67670    0.01529    0.15860    1.000
    O33      O        0.77610    0.93920    0.77590    1.000
    O34      O        0.93940    0.17740    0.12390    1.000
    O35      O        0.88740    0.23400    0.35270    1.000
    O36      O        0.73190    0.80720    0.97980    1.000
    O37      O        0.68870    0.03710    0.94970    1.000
    O38      O        0.80700    0.09200    0.25050    1.000
    O39      O        0.59260    0.82340    0.70860    1.000
    O40      O        0.75540    0.23870    0.12130    1.000
    O41      O        0.43910    0.73070    0.75680    1.000
    O42      O        0.81000    0.74060    0.21590    1.000
    O43      O        0.92390    0.84370    0.09090    1.000
    O44      O        0.69710    0.08480    0.69430    1.000
    O45      O        0.87050    0.07680    0.86620    1.000
    O46      O        0.76940    0.90590    0.20240    1.000
    O47      O        0.41940    0.83160    0.54590    1.000
    O48      O        0.43180    0.89780    0.79240    1.000
    P13      P        0.19303    0.32680    0.37670    1.000
    P14      P        0.15605    0.68447    0.28720    1.000
    P15      P        0.52999    0.32400    0.79650    1.000
    P16      P        0.24592    0.53510    0.67220    1.000
    Al10     Al       0.27376    0.33101    0.70350    1.000
    Al11     Al       0.05654    0.83043    0.06040    1.000
    Al12     Al       0.35496    0.68840    0.87380    1.000
    Mg4      Mg       0.32330    0.51529    0.34140    1.000
    O49      O        0.22390    0.43920    0.72410    1.000
    O50      O        0.06060    0.67740    0.37610    1.000
    O51      O        0.11260    0.73400    0.14730    1.000
    O52      O        0.26810    0.30720    0.52020    1.000
    O53      O        0.31130    0.53710    0.55030    1.000
    O54      O        0.19300    0.59200    0.24950    1.000
    O55      O        0.40740    0.32340    0.79140    1.000
    O56      O        0.24460    0.73870    0.37870    1.000
    O57      O        0.56090    0.23070    0.74320    1.000
    O58      O        0.19000    0.24060    0.28410    1.000
    O59      O        0.07610    0.34370    0.40910    1.000
    O60      O        0.30290    0.58480    0.80570    1.000
    O61      O        0.12950    0.57680    0.63380    1.000
    O62      O        0.23060    0.40590    0.29760    1.000
    O63      O        0.58060    0.33160    0.95410    1.000
    O64      O        0.56820    0.39780    0.70760    1.000
