# CIF file generated by openbabel 3.1.0, see https://openbabel.org
data_I
_chemical_name_common 'image0'
_cell_length_a 8.8353
_cell_length_b 14.2682
_cell_length_c 22.808
_cell_angle_alpha 92.475
_cell_angle_beta 91.101
_cell_angle_gamma 105.445
_space_group_name_H-M_alt 'P 1'
_space_group_name_Hall 'P 1'
loop_
    _symmetry_equiv_pos_as_xyz
    x,y,z
loop_
    _atom_site_label
    _atom_site_type_symbol
    _atom_site_fract_x
    _atom_site_fract_y
    _atom_site_fract_z
    _atom_site_occupancy
    Mn1      Mn       0.00833    0.54815    0.07958    1.000
    Mn2      Mn       0.50575    0.95296    0.42616    1.000
    Mn3      Mn       0.25660    0.82634    0.30181    1.000
    C1       C        0.69720    0.82140    0.47710    1.000
    C2       C        0.71210    0.71980    0.47833    1.000
    C3       C        0.61570    0.64650    0.44123    1.000
    H1       H        0.54050    0.66110    0.41680    1.000
    C4       C        0.63080    0.55280    0.44054    1.000
    H2       H        0.56570    0.50450    0.41580    1.000
    C5       C        0.74340    0.53010    0.47672    1.000
    C6       C        0.83730    0.60210    0.51422    1.000
    H3       H        0.91100    0.58710    0.53920    1.000
    C7       C        0.82230    0.69680    0.51475    1.000
    H4       H        0.88680    0.74480    0.53980    1.000
    C8       C        0.75710    0.42800    0.47723    1.000
    C9       C        0.76700    0.37150    0.42571    1.000
    C10      C        0.76640    0.27420    0.43073    1.000
    H5       H        0.77000    0.23620    0.39690    1.000
    C11      C        0.76030    0.23240    0.48515    1.000
    C12      C        0.75670    0.28980    0.53588    1.000
    C13      C        0.75630    0.38600    0.53105    1.000
    H6       H        0.75540    0.42400    0.56510    1.000
    C14      C        0.75120    0.24890    0.59546    1.000
    C15      C        0.76080    0.12750    0.48500    1.000
    C16      C        0.90020    0.50000    0.35771    1.000
    H7       H        0.95160    0.53820    0.38990    1.000
    C17      C        0.78920    0.41170    0.36615    1.000
    C18      C        0.71190    0.35840    0.31754    1.000
    H8       H        0.63550    0.30060    0.32260    1.000
    C19      C        0.74580    0.38930    0.26095    1.000
    H9       H        0.69250    0.35200    0.22870    1.000
    C20      C        0.85880    0.47570    0.25269    1.000
    C21      C        0.93380    0.53050    0.30148    1.000
    H10      H        0.00840    0.58920    0.29640    1.000
    C22      C        0.90340    0.50660    0.19132    1.000
    C23      C        0.74320    0.37520    0.02284    1.000
    C24      C        0.74550    0.26980    0.02497    1.000
    C25      C        0.74820    0.21180    0.97467    1.000
    C26      C        0.74950    0.11520    0.98069    1.000
    H11      H        0.75060    0.07640    0.94700    1.000
    C27      C        0.74930    0.07470    0.03466    1.000
    C28      C        0.73910    0.13170    0.08553    1.000
    C29      C        0.73960    0.22890    0.07957    1.000
    H12      H        0.73590    0.26750    0.11310    1.000
    C30      C        0.74480    0.24790    0.91346    1.000
    C31      C        0.71510    0.08990    0.14516    1.000
    C32      C        0.79660    0.13900    0.19442    1.000
    H13      H        0.87170    0.19780    0.19070    1.000
    C33      C        0.76740    0.10110    0.24965    1.000
    H14      H        0.82160    0.13530    0.28270    1.000
    C34      C        0.65650    0.01180    0.25529    1.000
    C35      C        0.57790    0.96200    0.20590    1.000
    H15      H        0.50550    0.90190    0.20930    1.000
    C36      C        0.60570    0.00040    0.15104    1.000
    H16      H        0.55100    0.96630    0.11800    1.000
    C37      C        0.76000    0.97190    0.03600    1.000
    C38      C        0.87270    0.94760    0.07145    1.000
    H17      H        0.93990    0.99550    0.09570    1.000
    C39      C        0.88590    0.85290    0.07103    1.000
    H18      H        0.96140    0.83780    0.09510    1.000
    C40      C        0.78640    0.78010    0.03470    1.000
    C41      C        0.67480    0.80470    0.99901    1.000
    H19      H        0.60790    0.75710    0.97440    1.000
    C42      C        0.66260    0.89940    0.99987    1.000
    H20      H        0.58750    0.91460    0.97570    1.000
    C43      C        0.80040    0.67790    0.03322    1.000
    C44      C        0.61540    0.97590    0.31516    1.000
    O1       O        0.59730    0.83653    0.44125    1.000
    O2       O        0.78210    0.88580    0.51261    1.000
    O3       O        0.75000    0.30171    0.64014    1.000
    O4       O        0.74430    0.15869    0.59958    1.000
    O5       O        0.62760    0.06523    0.48983    1.000
    O6       O        0.88690    0.10772    0.47782    1.000
    O7       O        0.02470    0.57510    0.18502    1.000
    O8       O        0.82140    0.46290    0.14815    1.000
    O9       O        0.61480    0.39331    0.03158    1.000
    O10      O        0.87150    0.43776    0.01425    1.000
    O11      O        0.75870    0.33701    0.90786    1.000
    O12      O        0.72730    0.18537    0.87171    1.000
    O13      O        0.71730    0.61720    0.99543    1.000
    O14      O        0.89780    0.65980    0.06879    1.000
    O15      O        0.49800    0.90280    0.32065    1.000
    O16      O        0.69370    0.01790    0.35958    1.000
    Mn4      Mn       0.99167    0.45185    0.92042    1.000
    Mn5      Mn       0.49425    0.04704    0.57384    1.000
    Mn6      Mn       0.74340    0.17366    0.69819    1.000
    C45      C        0.30280    0.17860    0.52290    1.000
    C46      C        0.28790    0.28020    0.52167    1.000
    C47      C        0.38430    0.35350    0.55877    1.000
    H21      H        0.45950    0.33890    0.58320    1.000
    C48      C        0.36920    0.44720    0.55946    1.000
    H22      H        0.43430    0.49550    0.58420    1.000
    C49      C        0.25660    0.46990    0.52328    1.000
    C50      C        0.16270    0.39790    0.48578    1.000
    H23      H        0.08900    0.41290    0.46080    1.000
    C51      C        0.17770    0.30320    0.48525    1.000
    H24      H        0.11320    0.25520    0.46020    1.000
    C52      C        0.24290    0.57200    0.52277    1.000
    C53      C        0.23300    0.62850    0.57429    1.000
    C54      C        0.23360    0.72580    0.56927    1.000
    H25      H        0.23000    0.76380    0.60310    1.000
    C55      C        0.23970    0.76760    0.51485    1.000
    C56      C        0.24330    0.71020    0.46412    1.000
    C57      C        0.24370    0.61400    0.46895    1.000
    H26      H        0.24460    0.57600    0.43490    1.000
    C58      C        0.24880    0.75110    0.40454    1.000
    C59      C        0.23920    0.87250    0.51500    1.000
    C60      C        0.09980    0.50000    0.64229    1.000
    H27      H        0.04840    0.46180    0.61010    1.000
    C61      C        0.21080    0.58830    0.63385    1.000
    C62      C        0.28810    0.64160    0.68246    1.000
    H28      H        0.36450    0.69940    0.67740    1.000
    C63      C        0.25420    0.61070    0.73905    1.000
    H29      H        0.30750    0.64800    0.77130    1.000
    C64      C        0.14120    0.52430    0.74731    1.000
    C65      C        0.06620    0.46950    0.69852    1.000
    H30      H        0.99160    0.41080    0.70360    1.000
    C66      C        0.09660    0.49340    0.80868    1.000
    C67      C        0.25680    0.62480    0.97716    1.000
    C68      C        0.25450    0.73020    0.97503    1.000
    C69      C        0.25180    0.78820    0.02533    1.000
    C70      C        0.25050    0.88480    0.01931    1.000
    H31      H        0.24940    0.92360    0.05300    1.000
    C71      C        0.25070    0.92530    0.96534    1.000
    C72      C        0.26090    0.86830    0.91447    1.000
    C73      C        0.26040    0.77110    0.92043    1.000
    H32      H        0.26410    0.73250    0.88690    1.000
    C74      C        0.25520    0.75210    0.08654    1.000
    C75      C        0.28490    0.91010    0.85484    1.000
    C76      C        0.20340    0.86100    0.80558    1.000
    H33      H        0.12830    0.80220    0.80930    1.000
    C77      C        0.23260    0.89890    0.75035    1.000
    H34      H        0.17840    0.86470    0.71730    1.000
    C78      C        0.34350    0.98820    0.74471    1.000
    C79      C        0.42210    0.03800    0.79410    1.000
    H35      H        0.49450    0.09810    0.79070    1.000
    C80      C        0.39430    0.99960    0.84896    1.000
    H36      H        0.44900    0.03370    0.88200    1.000
    C81      C        0.24000    0.02810    0.96400    1.000
    C82      C        0.12730    0.05240    0.92855    1.000
    H37      H        0.06010    0.00450    0.90430    1.000
    C83      C        0.11410    0.14710    0.92897    1.000
    H38      H        0.03860    0.16220    0.90490    1.000
    C84      C        0.21360    0.21990    0.96530    1.000
    C85      C        0.32520    0.19530    0.00099    1.000
    H39      H        0.39210    0.24290    0.02560    1.000
    C86      C        0.33740    0.10060    0.00013    1.000
    H40      H        0.41250    0.08540    0.02430    1.000
    C87      C        0.19960    0.32210    0.96678    1.000
    C88      C        0.38460    0.02410    0.68484    1.000
    O17      O        0.40270    0.16347    0.55875    1.000
    O18      O        0.21790    0.11420    0.48739    1.000
    O19      O        0.25000    0.69829    0.35986    1.000
    O20      O        0.25570    0.84131    0.40042    1.000
    O21      O        0.37240    0.93477    0.51017    1.000
    O22      O        0.11310    0.89228    0.52218    1.000
    O23      O        0.97530    0.42490    0.81498    1.000
    O24      O        0.17860    0.53710    0.85185    1.000
    O25      O        0.38520    0.60669    0.96842    1.000
    O26      O        0.12850    0.56224    0.98575    1.000
    O27      O        0.24130    0.66299    0.09214    1.000
    O28      O        0.27270    0.81463    0.12829    1.000
    O29      O        0.28270    0.38280    0.00457    1.000
    O30      O        0.10220    0.34020    0.93121    1.000
    O31      O        0.50200    0.09720    0.67935    1.000
    O32      O        0.30630    0.98210    0.64042    1.000
    Mn7      Mn       0.50000    0.50000    0.00000    1.000
    Mn8      Mn       0.00000    0.00000    0.50000    1.000
