# CIF file generated by openbabel 3.1.0, see https://openbabel.org
data_I
_chemical_name_common 'MADVUJ_clean'
_cell_length_a 7.201
_cell_length_b 12.4
_cell_length_c 20.784
_cell_angle_alpha 90
_cell_angle_beta 90
_cell_angle_gamma 90
_space_group_name_H-M_alt 'P 1'
_space_group_name_Hall 'P 1'
loop_
    _symmetry_equiv_pos_as_xyz
    x,y,z
loop_
    _atom_site_label
    _atom_site_type_symbol
    _atom_site_fract_x
    _atom_site_fract_y
    _atom_site_fract_z
    _atom_site_occupancy
    Cu1      Cu       0.23648    0.83781    0.75000    1.000
    Cu2      Cu       0.26352    0.33781    0.25000    1.000
    Cu3      Cu       0.76352    0.16219    0.25000    1.000
    Cu4      Cu       0.73648    0.66219    0.75000    1.000
    H1       H        0.35570    0.17570    0.89990    1.000
    H2       H        0.50490    0.24860    0.98970    1.000
    H3       H        0.28970    0.01080    0.10030    1.000
    H4       H        0.15360    0.93440    0.00990    1.000
    H5       H        0.10100    0.92740    0.89980    1.000
    H6       H        0.11230    0.03350    0.86050    1.000
    H7       H        0.37110    0.78010    0.90540    1.000
    H8       H        0.55000    0.78080    0.86380    1.000
    H9       H        0.14430    0.67570    0.10010    1.000
    H10      H        0.99510    0.74860    0.01030    1.000
    H11      H        0.21030    0.51080    0.89970    1.000
    H12      H        0.34640    0.43440    0.99010    1.000
    H13      H        0.39900    0.42740    0.10020    1.000
    H14      H        0.38770    0.53350    0.13950    1.000
    H15      H        0.12890    0.28010    0.09460    1.000
    H16      H        0.95000    0.28080    0.13620    1.000
    H17      H        0.64430    0.82430    0.39990    1.000
    H18      H        0.49510    0.75140    0.48970    1.000
    H19      H        0.71030    0.98920    0.60030    1.000
    H20      H        0.84640    0.06560    0.50990    1.000
    H21      H        0.89900    0.07260    0.39980    1.000
    H22      H        0.88770    0.96650    0.36050    1.000
    H23      H        0.62890    0.21990    0.40540    1.000
    H24      H        0.45000    0.21920    0.36380    1.000
    H25      H        0.85570    0.32430    0.60010    1.000
    H26      H        0.00490    0.25140    0.51030    1.000
    H27      H        0.78970    0.48920    0.39970    1.000
    H28      H        0.65360    0.56560    0.49010    1.000
    H29      H        0.60100    0.57260    0.60020    1.000
    H30      H        0.61230    0.46650    0.63950    1.000
    H31      H        0.87110    0.71990    0.59460    1.000
    H32      H        0.05000    0.71920    0.63620    1.000
    H33      H        0.64430    0.82430    0.10010    1.000
    H34      H        0.49510    0.75140    0.01030    1.000
    H35      H        0.71030    0.98920    0.89970    1.000
    H36      H        0.84640    0.06560    0.99010    1.000
    H37      H        0.89900    0.07260    0.10020    1.000
    H38      H        0.88770    0.96650    0.13950    1.000
    H39      H        0.62890    0.21990    0.09460    1.000
    H40      H        0.45000    0.21920    0.13620    1.000
    H41      H        0.85570    0.32430    0.89990    1.000
    H42      H        0.00490    0.25140    0.98970    1.000
    H43      H        0.78970    0.48920    0.10030    1.000
    H44      H        0.65360    0.56560    0.00990    1.000
    H45      H        0.60100    0.57260    0.89980    1.000
    H46      H        0.61230    0.46650    0.86050    1.000
    H47      H        0.87110    0.71990    0.90540    1.000
    H48      H        0.05000    0.71920    0.86380    1.000
    H49      H        0.35570    0.17570    0.60010    1.000
    H50      H        0.50490    0.24860    0.51030    1.000
    H51      H        0.28970    0.01080    0.39970    1.000
    H52      H        0.15360    0.93440    0.49010    1.000
    H53      H        0.10100    0.92740    0.60020    1.000
    H54      H        0.11230    0.03350    0.63950    1.000
    H55      H        0.37110    0.78010    0.59460    1.000
    H56      H        0.55000    0.78080    0.63620    1.000
    H57      H        0.14430    0.67570    0.39990    1.000
    H58      H        0.99510    0.74860    0.48970    1.000
    H59      H        0.21030    0.51080    0.60030    1.000
    H60      H        0.34640    0.43440    0.50990    1.000
    H61      H        0.39900    0.42740    0.39980    1.000
    H62      H        0.38770    0.53350    0.36050    1.000
    H63      H        0.12890    0.28010    0.40540    1.000
    H64      H        0.95000    0.28080    0.36380    1.000
    C1       C        0.34810    0.13980    0.94020    1.000
    C2       C        0.43520    0.18390    0.99390    1.000
    C3       C        0.42100    0.13390    0.05370    1.000
    C4       C        0.30940    0.04250    0.05920    1.000
    C5       C        0.22700    0.99760    0.00540    1.000
    C6       C        0.24960    0.04310    0.94520    1.000
    C7       C        0.18030    0.98430    0.88640    1.000
    C8       C        0.46920    0.82370    0.88930    1.000
    C9       C        0.15190    0.63980    0.05980    1.000
    C10      C        0.06480    0.68390    0.00610    1.000
    C11      C        0.07900    0.63390    0.94630    1.000
    C12      C        0.19060    0.54250    0.94080    1.000
    C13      C        0.27300    0.49760    0.99460    1.000
    C14      C        0.25040    0.54310    0.05480    1.000
    C15      C        0.31970    0.48430    0.11360    1.000
    C16      C        0.03080    0.32370    0.11070    1.000
    C17      C        0.65190    0.86020    0.44020    1.000
    C18      C        0.56480    0.81610    0.49390    1.000
    C19      C        0.57900    0.86610    0.55370    1.000
    C20      C        0.69060    0.95750    0.55920    1.000
    C21      C        0.77300    0.00240    0.50540    1.000
    C22      C        0.75040    0.95690    0.44520    1.000
    C23      C        0.81970    0.01570    0.38640    1.000
    C24      C        0.53080    0.17630    0.38930    1.000
    C25      C        0.84810    0.36020    0.55980    1.000
    C26      C        0.93520    0.31610    0.50610    1.000
    C27      C        0.92100    0.36610    0.44630    1.000
    C28      C        0.80940    0.45750    0.44080    1.000
    C29      C        0.72700    0.50240    0.49460    1.000
    C30      C        0.74960    0.45690    0.55480    1.000
    C31      C        0.68030    0.51570    0.61360    1.000
    C32      C        0.96920    0.67630    0.61070    1.000
    C33      C        0.65190    0.86020    0.05980    1.000
    C34      C        0.56480    0.81610    0.00610    1.000
    C35      C        0.57900    0.86610    0.94630    1.000
    C36      C        0.69060    0.95750    0.94080    1.000
    C37      C        0.77300    0.00240    0.99460    1.000
    C38      C        0.75040    0.95690    0.05480    1.000
    C39      C        0.81970    0.01570    0.11360    1.000
    C40      C        0.53080    0.17630    0.11070    1.000
    C41      C        0.84810    0.36020    0.94020    1.000
    C42      C        0.93520    0.31610    0.99390    1.000
    C43      C        0.92100    0.36610    0.05370    1.000
    C44      C        0.80940    0.45750    0.05920    1.000
    C45      C        0.72700    0.50240    0.00540    1.000
    C46      C        0.74960    0.45690    0.94520    1.000
    C47      C        0.68030    0.51570    0.88640    1.000
    C48      C        0.96920    0.67630    0.88930    1.000
    C49      C        0.34810    0.13980    0.55980    1.000
    C50      C        0.43520    0.18390    0.50610    1.000
    C51      C        0.42100    0.13390    0.44630    1.000
    C52      C        0.30940    0.04250    0.44080    1.000
    C53      C        0.22700    0.99760    0.49460    1.000
    C54      C        0.24960    0.04310    0.55480    1.000
    C55      C        0.18030    0.98430    0.61360    1.000
    C56      C        0.46920    0.82370    0.61070    1.000
    C57      C        0.15190    0.63980    0.44020    1.000
    C58      C        0.06480    0.68390    0.49390    1.000
    C59      C        0.07900    0.63390    0.55370    1.000
    C60      C        0.19060    0.54250    0.55920    1.000
    C61      C        0.27300    0.49760    0.50540    1.000
    C62      C        0.25040    0.54310    0.44520    1.000
    C63      C        0.31970    0.48430    0.38640    1.000
    C64      C        0.03080    0.32370    0.38930    1.000
    S1       S        0.36830    0.92702    0.83789    1.000
    S2       S        0.13170    0.42702    0.16211    1.000
    S3       S        0.63170    0.07298    0.33789    1.000
    S4       S        0.86830    0.57298    0.66211    1.000
    S5       S        0.63170    0.07298    0.16211    1.000
    S6       S        0.86830    0.57298    0.83789    1.000
    S7       S        0.36830    0.92702    0.66211    1.000
    S8       S        0.13170    0.42702    0.33789    1.000
    I1       I        0.87181    0.85935    0.75000    1.000
    I2       I        0.62819    0.35935    0.25000    1.000
    I3       I        0.12819    0.14065    0.25000    1.000
    I4       I        0.37181    0.64065    0.75000    1.000
