# CIF file generated by openbabel 3.1.0, see https://openbabel.org
data_I
_chemical_name_common 'JIVFUQ_clean'
_cell_length_a 9.1571
_cell_length_b 10.4571
_cell_length_c 10.4571
_cell_angle_alpha 95.8993
_cell_angle_beta 100.305
_cell_angle_gamma 79.6951
_space_group_name_H-M_alt 'P 1'
_space_group_name_Hall 'P 1'
loop_
    _symmetry_equiv_pos_as_xyz
    x,y,z
loop_
    _atom_site_label
    _atom_site_type_symbol
    _atom_site_fract_x
    _atom_site_fract_y
    _atom_site_fract_z
    _atom_site_occupancy
    Zn1      Zn       0.75000    0.02443    0.02443    1.000
    Zn2      Zn       0.25000    0.97557    0.97557    1.000
    P1       P        0.99153    0.20632    0.05526    1.000
    P2       P        0.50847    0.05526    0.20632    1.000
    P3       P        0.00847    0.79368    0.94474    1.000
    P4       P        0.49153    0.94474    0.79368    1.000
    H1       H        0.01320    0.23490    0.24750    1.000
    H2       H        0.72640    0.34590    0.96250    1.000
    H3       H        0.21440    0.36310    0.08630    1.000
    H4       H        0.48680    0.24750    0.23490    1.000
    H5       H        0.77360    0.96250    0.34590    1.000
    H6       H        0.28560    0.08630    0.36310    1.000
    H7       H        0.98680    0.76510    0.75250    1.000
    H8       H        0.27360    0.65410    0.03750    1.000
    H9       H        0.78560    0.63690    0.91370    1.000
    H10      H        0.51320    0.75250    0.76510    1.000
    H11      H        0.22640    0.03750    0.65410    1.000
    H12      H        0.71440    0.91370    0.63690    1.000
    C1       C        0.86100    0.45668    0.97332    1.000
    C2       C        0.99010    0.37309    0.02575    1.000
    C3       C        0.12820    0.41820    0.05160    1.000
    C4       C        0.63900    0.97332    0.45668    1.000
    C5       C        0.50990    0.02575    0.37309    1.000
    C6       C        0.37180    0.05160    0.41820    1.000
    C7       C        0.13900    0.54332    0.02668    1.000
    C8       C        0.00990    0.62691    0.97425    1.000
    C9       C        0.87180    0.58180    0.94840    1.000
    C10      C        0.36100    0.02668    0.54332    1.000
    C11      C        0.49010    0.97425    0.62691    1.000
    C12      C        0.62820    0.94840    0.58180    1.000
    O1       O        0.06210    0.18481    0.19931    1.000
    O2       O        0.82700    0.18768    0.02698    1.000
    O3       O        0.08930    0.12064    0.96892    1.000
    O4       O        0.72100    0.42088    0.94338    1.000
    O5       O        0.43790    0.19931    0.18481    1.000
    O6       O        0.67300    0.02698    0.18768    1.000
    O7       O        0.41070    0.96892    0.12064    1.000
    O8       O        0.77900    0.94338    0.42088    1.000
    O9       O        0.93790    0.81519    0.80069    1.000
    O10      O        0.17300    0.81232    0.97302    1.000
    O11      O        0.91070    0.87936    0.03108    1.000
    O12      O        0.27900    0.57912    0.05662    1.000
    O13      O        0.56210    0.80069    0.81519    1.000
    O14      O        0.32700    0.97302    0.81232    1.000
    O15      O        0.58930    0.03108    0.87936    1.000
    O16      O        0.22100    0.05662    0.57912    1.000
