# CIF file generated by openbabel 3.1.0, see https://openbabel.org
data_I
_chemical_name_common 'BOHGOU_clean'
_cell_length_a 7.731
_cell_length_b 7.8455
_cell_length_c 7.8455
_cell_angle_alpha 116.473
_cell_angle_beta 103.025
_cell_angle_gamma 103.025
_space_group_name_H-M_alt 'P 1'
_space_group_name_Hall 'P 1'
loop_
    _symmetry_equiv_pos_as_xyz
    x,y,z
loop_
    _atom_site_label
    _atom_site_type_symbol
    _atom_site_fract_x
    _atom_site_fract_y
    _atom_site_fract_z
    _atom_site_occupancy
    Mn1      Mn       0.75000    0.14331    0.85669    1.000
    Mn2      Mn       0.25000    0.85669    0.14331    1.000
    H1       H        0.94700    0.31300    0.50100    1.000
    H2       H        0.02500    0.61300    0.52300    1.000
    H3       H        0.44700    0.50100    0.31300    1.000
    H4       H        0.52500    0.52300    0.61300    1.000
    C1       C        0.98120    0.11860    0.22680    1.000
    C2       C        0.98300    0.31580    0.38800    1.000
    C3       C        0.02760    0.49580    0.39920    1.000
    C4       C        0.08030    0.53990    0.24630    1.000
    C5       C        0.48120    0.22680    0.11860    1.000
    C6       C        0.48300    0.38800    0.31580    1.000
    C7       C        0.52760    0.39920    0.49580    1.000
    C8       C        0.58030    0.24630    0.53990    1.000
    O1       O        0.09140    0.04510    0.29190    1.000
    O2       O        0.86810    0.02890    0.04470    1.000
    O3       O        0.00900    0.41090    0.05970    1.000
    O4       O        0.20080    0.71920    0.32240    1.000
    O5       O        0.59140    0.29190    0.04510    1.000
    O6       O        0.36810    0.04470    0.02890    1.000
    O7       O        0.50900    0.05970    0.41090    1.000
    O8       O        0.70080    0.32240    0.71920    1.000
