# CIF file generated by openbabel 3.1.0, see https://openbabel.org
data_I
_chemical_name_common 'image0'
_cell_length_a 12.9197
_cell_length_b 12.9197
_cell_length_c 9.8491
_cell_angle_alpha 90
_cell_angle_beta 90
_cell_angle_gamma 90
_space_group_name_H-M_alt 'P 1'
_space_group_name_Hall 'P 1'
loop_
    _symmetry_equiv_pos_as_xyz
    x,y,z
loop_
    _atom_site_label
    _atom_site_type_symbol
    _atom_site_fract_x
    _atom_site_fract_y
    _atom_site_fract_z
    _atom_site_occupancy
    O1       O        0.60990    0.88890    0.93070    1.000
    P1       P        0.63710    0.86630    0.77870    1.000
    Co1      Co       0.86409    0.94522    0.63135    1.000
    P2       P        0.82401    0.92776    0.31620    1.000
    O2       O        0.78830    0.91370    0.46310    1.000
    O3       O        0.84490    0.04170    0.28500    1.000
    O4       O        0.91860    0.86060    0.28520    1.000
    O5       O        0.74480    0.88920    0.75180    1.000
    O6       O        0.73460    0.89490    0.21980    1.000
    O7       O        0.56300    0.94000    0.80100    1.000
    O8       O        0.39010    0.11110    0.93070    1.000
    P3       P        0.36290    0.13370    0.77870    1.000
    Co2      Co       0.13591    0.05478    0.63135    1.000
    P4       P        0.17599    0.07224    0.31620    1.000
    O9       O        0.21170    0.08630    0.46310    1.000
    O10      O        0.15510    0.95830    0.28500    1.000
    O11      O        0.08140    0.13940    0.28520    1.000
    O12      O        0.25520    0.11080    0.75180    1.000
    O13      O        0.26540    0.10510    0.21980    1.000
    O14      O        0.43700    0.06000    0.80100    1.000
    O15      O        0.88890    0.39010    0.06930    1.000
    P5       P        0.86630    0.36290    0.22130    1.000
    Co3      Co       0.94522    0.13591    0.36865    1.000
    P6       P        0.92776    0.17599    0.68380    1.000
    O16      O        0.91370    0.21170    0.53690    1.000
    O17      O        0.04170    0.15510    0.71500    1.000
    O18      O        0.86060    0.08140    0.71480    1.000
    O19      O        0.88920    0.25520    0.24820    1.000
    O20      O        0.89490    0.26540    0.78020    1.000
    O21      O        0.94000    0.43700    0.19900    1.000
    O22      O        0.11110    0.60990    0.06930    1.000
    P7       P        0.13370    0.63710    0.22130    1.000
    Co4      Co       0.05478    0.86409    0.36865    1.000
    P8       P        0.07224    0.82401    0.68380    1.000
    O23      O        0.08630    0.78830    0.53690    1.000
    O24      O        0.95830    0.84490    0.71500    1.000
    O25      O        0.13940    0.91860    0.71480    1.000
    O26      O        0.11080    0.74480    0.24820    1.000
    O27      O        0.10510    0.73460    0.78020    1.000
    O28      O        0.06000    0.56300    0.19900    1.000
    O29      O        0.10990    0.61110    0.43070    1.000
    P9       P        0.13710    0.63370    0.27870    1.000
    Co5      Co       0.36409    0.55478    0.13135    1.000
    P10      P        0.32401    0.57224    0.81620    1.000
    O30      O        0.28830    0.58630    0.96310    1.000
    O31      O        0.34490    0.45830    0.78500    1.000
    O32      O        0.41860    0.63940    0.78520    1.000
    O33      O        0.24480    0.61080    0.25180    1.000
    O34      O        0.23460    0.60510    0.71980    1.000
    O35      O        0.06300    0.56000    0.30100    1.000
    O36      O        0.89010    0.38890    0.43070    1.000
    P11      P        0.86290    0.36630    0.27870    1.000
    Co6      Co       0.63591    0.44522    0.13135    1.000
    P12      P        0.67599    0.42776    0.81620    1.000
    O37      O        0.71170    0.41370    0.96310    1.000
    O38      O        0.65510    0.54170    0.78500    1.000
    O39      O        0.58140    0.36060    0.78520    1.000
    O40      O        0.75520    0.38920    0.25180    1.000
    O41      O        0.76540    0.39490    0.71980    1.000
    O42      O        0.93700    0.44000    0.30100    1.000
    O43      O        0.38890    0.10990    0.56930    1.000
    P13      P        0.36630    0.13710    0.72130    1.000
    Co7      Co       0.44522    0.36409    0.86865    1.000
    P14      P        0.42776    0.32401    0.18380    1.000
    O44      O        0.41370    0.28830    0.03690    1.000
    O45      O        0.54170    0.34490    0.21500    1.000
    O46      O        0.36060    0.41860    0.21480    1.000
    O47      O        0.38920    0.24480    0.74820    1.000
    O48      O        0.39490    0.23460    0.28020    1.000
    O49      O        0.44000    0.06300    0.69900    1.000
    O50      O        0.61110    0.89010    0.56930    1.000
    P15      P        0.63370    0.86290    0.72130    1.000
    Co8      Co       0.55478    0.63591    0.86865    1.000
    P16      P        0.57224    0.67599    0.18380    1.000
    O51      O        0.58630    0.71170    0.03690    1.000
    O52      O        0.45830    0.65510    0.21500    1.000
    O53      O        0.63940    0.58140    0.21480    1.000
    O54      O        0.61080    0.75520    0.74820    1.000
    O55      O        0.60510    0.76540    0.28020    1.000
    O56      O        0.56000    0.93700    0.69900    1.000
