# CIF file generated by openbabel 3.1.0, see https://openbabel.org
data_I
_chemical_name_common 'image0'
_cell_length_a 25.6621
_cell_length_b 16.1587
_cell_length_c 26.5745
_cell_angle_alpha 90
_cell_angle_beta 113.21
_cell_angle_gamma 90
_space_group_name_H-M_alt 'P 1'
_space_group_name_Hall 'P 1'
loop_
    _symmetry_equiv_pos_as_xyz
    x,y,z
loop_
    _atom_site_label
    _atom_site_type_symbol
    _atom_site_fract_x
    _atom_site_fract_y
    _atom_site_fract_z
    _atom_site_occupancy
    C1       C        0.11790    0.92490    0.15590    1.000
    C2       C        0.14520    0.97080    0.20880    1.000
    C3       C        0.12360    0.96480    0.24910    1.000
    H1       H        0.09120    0.93110    0.24270    1.000
    C4       C        0.14880    0.00780    0.29960    1.000
    C5       C        0.19550    0.05640    0.30900    1.000
    C6       C        0.21740    0.06530    0.26700    1.000
    H2       H        0.24780    0.10230    0.27180    1.000
    C7       C        0.19330    0.01920    0.21990    1.000
    H3       H        0.21030    0.02040    0.19390    1.000
    C8       C        0.05430    0.98350    0.46400    1.000
    C9       C        0.07860    0.98850    0.42070    1.000
    C10      C        0.12510    0.03730    0.43010    1.000
    H4       H        0.14140    0.06680    0.46370    1.000
    C11      C        0.14950    0.04480    0.39030    1.000
    C12      C        0.12360    0.00000    0.34030    1.000
    C13      C        0.07670    0.95150    0.33270    1.000
    H5       H        0.05890    0.92320    0.29890    1.000
    C14      C        0.05430    0.94220    0.37250    1.000
    H6       H        0.02350    0.90560    0.36700    1.000
    C15      C        0.34460    0.25190    0.43020    1.000
    C16      C        0.29460    0.19550    0.41950    1.000
    C17      C        0.27010    0.15310    0.37200    1.000
    H7       H        0.28600    0.15820    0.34540    1.000
    C18      C        0.22310    0.10260    0.36010    1.000
    C19      C        0.19880    0.09710    0.40040    1.000
    C20      C        0.22580    0.14100    0.44990    1.000
    H8       H        0.21160    0.13590    0.47790    1.000
    C21      C        0.27090    0.18950    0.45860    1.000
    H9       H        0.28700    0.22020    0.49170    1.000
    O1       O        0.13710    0.93340    0.11910    1.000
    O2       O        0.07560    0.88050    0.14760    1.000
    O3       O        0.01880    0.92860    0.45860    1.000
    O4       O        0.07320    0.03120    0.50310    1.000
    O5       O        0.35730    0.30440    0.46810    1.000
    O6       O        0.37050    0.24590    0.39800    1.000
    Tb1      Tb       0.06294    0.85610    0.05294    1.000
    O7       O        0.01720    0.80780    0.96480    1.000
    C22      C        0.99760    0.83270    0.91200    1.000
    C23      C        0.94650    0.88790    0.88950    1.000
    H10      H        0.92550    0.87560    0.85060    1.000
    H11      H        0.95870    0.94580    0.89380    1.000
    H12      H        0.92210    0.87810    0.90940    1.000
    C24      C        0.07380    0.75370    0.90390    1.000
    H13      H        0.06340    0.71010    0.92380    1.000
    H14      H        0.10510    0.78650    0.92970    1.000
    H15      H        0.08560    0.72870    0.87650    1.000
    N1       N        0.02330    0.80930    0.87560    1.000
    C25      C        0.99420    0.84370    0.81850    1.000
    H16      H        0.95310    0.84280    0.80790    1.000
    H17      H        0.00400    0.80990    0.79290    1.000
    H18      H        0.00670    0.90080    0.81760    1.000
    H19      H        0.90990    0.25600    0.39550    1.000
    H20      H        0.95560    0.32550    0.39890    1.000
    H21      H        0.93180    0.26490    0.34720    1.000
    H22      H        0.06480    0.11680    0.45450    1.000
    H23      H        0.05320    0.03970    0.41370    1.000
    H24      H        0.08160    0.12210    0.40270    1.000
    H25      H        0.97220    0.11750    0.30300    1.000
    H26      H        0.93640    0.18960    0.31580    1.000
    H27      H        0.99420    0.21110    0.30930    1.000
    O8       O        0.01350    0.20700    0.47080    1.000
    C26      C        0.98960    0.20920    0.41550    1.000
    C27      C        0.94260    0.26900    0.38680    1.000
    C28      C        0.05390    0.10000    0.41600    1.000
    N2       N        0.00640    0.15700    0.38170    1.000
    C29      C        0.97460    0.17000    0.32240    1.000
    C30      C        0.61790    0.42490    0.15590    1.000
    C31      C        0.64520    0.47080    0.20880    1.000
    C32      C        0.62360    0.46480    0.24910    1.000
    H28      H        0.59120    0.43110    0.24270    1.000
    C33      C        0.64880    0.50780    0.29960    1.000
    C34      C        0.69550    0.55640    0.30900    1.000
    C35      C        0.71740    0.56530    0.26700    1.000
    H29      H        0.74780    0.60230    0.27180    1.000
    C36      C        0.69330    0.51920    0.21990    1.000
    H30      H        0.71030    0.52040    0.19390    1.000
    C37      C        0.55430    0.48350    0.46400    1.000
    C38      C        0.57860    0.48850    0.42070    1.000
    C39      C        0.62510    0.53730    0.43010    1.000
    H31      H        0.64140    0.56680    0.46370    1.000
    C40      C        0.64950    0.54480    0.39030    1.000
    C41      C        0.62360    0.50000    0.34030    1.000
    C42      C        0.57670    0.45150    0.33270    1.000
    H32      H        0.55890    0.42320    0.29890    1.000
    C43      C        0.55430    0.44220    0.37250    1.000
    H33      H        0.52350    0.40560    0.36700    1.000
    C44      C        0.84460    0.75190    0.43020    1.000
    C45      C        0.79460    0.69550    0.41950    1.000
    C46      C        0.77010    0.65310    0.37200    1.000
    H34      H        0.78600    0.65820    0.34540    1.000
    C47      C        0.72310    0.60260    0.36010    1.000
    C48      C        0.69880    0.59710    0.40040    1.000
    C49      C        0.72580    0.64100    0.44990    1.000
    H35      H        0.71160    0.63590    0.47790    1.000
    C50      C        0.77090    0.68950    0.45860    1.000
    H36      H        0.78700    0.72020    0.49170    1.000
    O9       O        0.63710    0.43340    0.11910    1.000
    O10      O        0.57560    0.38050    0.14760    1.000
    O11      O        0.51880    0.42860    0.45860    1.000
    O12      O        0.57320    0.53120    0.50310    1.000
    O13      O        0.85730    0.80440    0.46810    1.000
    O14      O        0.87050    0.74590    0.39800    1.000
    Tb2      Tb       0.56294    0.35610    0.05294    1.000
    O15      O        0.51720    0.30780    0.96480    1.000
    C51      C        0.49760    0.33270    0.91200    1.000
    C52      C        0.44650    0.38790    0.88950    1.000
    H37      H        0.42550    0.37560    0.85060    1.000
    H38      H        0.45870    0.44580    0.89380    1.000
    H39      H        0.42210    0.37810    0.90940    1.000
    C53      C        0.57380    0.25370    0.90390    1.000
    H40      H        0.56340    0.21010    0.92380    1.000
    H41      H        0.60510    0.28650    0.92970    1.000
    H42      H        0.58560    0.22870    0.87650    1.000
    N3       N        0.52330    0.30930    0.87560    1.000
    C54      C        0.49420    0.34370    0.81850    1.000
    H43      H        0.45310    0.34280    0.80790    1.000
    H44      H        0.50400    0.30990    0.79290    1.000
    H45      H        0.50670    0.40080    0.81760    1.000
    H46      H        0.40990    0.75600    0.39550    1.000
    H47      H        0.45560    0.82550    0.39890    1.000
    H48      H        0.43180    0.76490    0.34720    1.000
    H49      H        0.56480    0.61680    0.45450    1.000
    H50      H        0.55320    0.53970    0.41370    1.000
    H51      H        0.58160    0.62210    0.40270    1.000
    H52      H        0.47220    0.61750    0.30300    1.000
    H53      H        0.43640    0.68960    0.31580    1.000
    H54      H        0.49420    0.71110    0.30930    1.000
    O16      O        0.51350    0.70700    0.47080    1.000
    C55      C        0.48960    0.70920    0.41550    1.000
    C56      C        0.44260    0.76900    0.38680    1.000
    C57      C        0.55390    0.60000    0.41600    1.000
    N4       N        0.50640    0.65700    0.38170    1.000
    C58      C        0.47460    0.67000    0.32240    1.000
    C59      C        0.88210    0.92490    0.34410    1.000
    C60      C        0.85480    0.97080    0.29120    1.000
    C61      C        0.87640    0.96480    0.25090    1.000
    H55      H        0.90880    0.93110    0.25730    1.000
    C62      C        0.85120    0.00780    0.20040    1.000
    C63      C        0.80450    0.05640    0.19100    1.000
    C64      C        0.78260    0.06530    0.23300    1.000
    H56      H        0.75220    0.10230    0.22820    1.000
    C65      C        0.80670    0.01920    0.28010    1.000
    H57      H        0.78970    0.02040    0.30610    1.000
    C66      C        0.94570    0.98350    0.03600    1.000
    C67      C        0.92140    0.98850    0.07930    1.000
    C68      C        0.87490    0.03730    0.06990    1.000
    H58      H        0.85860    0.06680    0.03630    1.000
    C69      C        0.85050    0.04480    0.10970    1.000
    C70      C        0.87640    0.00000    0.15970    1.000
    C71      C        0.92330    0.95150    0.16730    1.000
    H59      H        0.94110    0.92320    0.20110    1.000
    C72      C        0.94570    0.94220    0.12750    1.000
    H60      H        0.97650    0.90560    0.13300    1.000
    C73      C        0.65540    0.25190    0.06980    1.000
    C74      C        0.70540    0.19550    0.08050    1.000
    C75      C        0.72990    0.15310    0.12800    1.000
    H61      H        0.71400    0.15820    0.15460    1.000
    C76      C        0.77690    0.10260    0.13990    1.000
    C77      C        0.80120    0.09710    0.09960    1.000
    C78      C        0.77420    0.14100    0.05010    1.000
    H62      H        0.78840    0.13590    0.02210    1.000
    C79      C        0.72910    0.18950    0.04140    1.000
    H63      H        0.71300    0.22020    0.00830    1.000
    O17      O        0.86290    0.93340    0.38090    1.000
    O18      O        0.92440    0.88050    0.35240    1.000
    O19      O        0.98120    0.92860    0.04140    1.000
    O20      O        0.92680    0.03120    0.99690    1.000
    O21      O        0.64270    0.30440    0.03190    1.000
    O22      O        0.62950    0.24590    0.10200    1.000
    Tb3      Tb       0.93706    0.85610    0.44706    1.000
    O23      O        0.98280    0.80780    0.53520    1.000
    C80      C        0.00240    0.83270    0.58800    1.000
    C81      C        0.05350    0.88790    0.61050    1.000
    H64      H        0.07450    0.87560    0.64940    1.000
    H65      H        0.04130    0.94580    0.60620    1.000
    H66      H        0.07790    0.87810    0.59060    1.000
    C82      C        0.92620    0.75370    0.59610    1.000
    H67      H        0.93660    0.71010    0.57620    1.000
    H68      H        0.89490    0.78650    0.57030    1.000
    H69      H        0.91440    0.72870    0.62350    1.000
    N5       N        0.97670    0.80930    0.62440    1.000
    C83      C        0.00580    0.84370    0.68150    1.000
    H70      H        0.04690    0.84280    0.69210    1.000
    H71      H        0.99600    0.80990    0.70710    1.000
    H72      H        0.99330    0.90080    0.68240    1.000
    H73      H        0.09010    0.25600    0.10450    1.000
    H74      H        0.04440    0.32550    0.10110    1.000
    H75      H        0.06820    0.26490    0.15280    1.000
    H76      H        0.93520    0.11680    0.04550    1.000
    H77      H        0.94680    0.03970    0.08630    1.000
    H78      H        0.91840    0.12210    0.09730    1.000
    H79      H        0.02780    0.11750    0.19700    1.000
    H80      H        0.06360    0.18960    0.18420    1.000
    H81      H        0.00580    0.21110    0.19070    1.000
    O24      O        0.98650    0.20700    0.02920    1.000
    C84      C        0.01040    0.20920    0.08450    1.000
    C85      C        0.05740    0.26900    0.11320    1.000
    C86      C        0.94610    0.10000    0.08400    1.000
    N6       N        0.99360    0.15700    0.11830    1.000
    C87      C        0.02540    0.17000    0.17760    1.000
    C88      C        0.38210    0.42490    0.34410    1.000
    C89      C        0.35480    0.47080    0.29120    1.000
    C90      C        0.37640    0.46480    0.25090    1.000
    H82      H        0.40880    0.43110    0.25730    1.000
    C91      C        0.35120    0.50780    0.20040    1.000
    C92      C        0.30450    0.55640    0.19100    1.000
    C93      C        0.28260    0.56530    0.23300    1.000
    H83      H        0.25220    0.60230    0.22820    1.000
    C94      C        0.30670    0.51920    0.28010    1.000
    H84      H        0.28970    0.52040    0.30610    1.000
    C95      C        0.44570    0.48350    0.03600    1.000
    C96      C        0.42140    0.48850    0.07930    1.000
    C97      C        0.37490    0.53730    0.06990    1.000
    H85      H        0.35860    0.56680    0.03630    1.000
    C98      C        0.35050    0.54480    0.10970    1.000
    C99      C        0.37640    0.50000    0.15970    1.000
    C100     C        0.42330    0.45150    0.16730    1.000
    H86      H        0.44110    0.42320    0.20110    1.000
    C101     C        0.44570    0.44220    0.12750    1.000
    H87      H        0.47650    0.40560    0.13300    1.000
    C102     C        0.15540    0.75190    0.06980    1.000
    C103     C        0.20540    0.69550    0.08050    1.000
    C104     C        0.22990    0.65310    0.12800    1.000
    H88      H        0.21400    0.65820    0.15460    1.000
    C105     C        0.27690    0.60260    0.13990    1.000
    C106     C        0.30120    0.59710    0.09960    1.000
    C107     C        0.27420    0.64100    0.05010    1.000
    H89      H        0.28840    0.63590    0.02210    1.000
    C108     C        0.22910    0.68950    0.04140    1.000
    H90      H        0.21300    0.72020    0.00830    1.000
    O25      O        0.36290    0.43340    0.38090    1.000
    O26      O        0.42440    0.38050    0.35240    1.000
    O27      O        0.48120    0.42860    0.04140    1.000
    O28      O        0.42680    0.53120    0.99690    1.000
    O29      O        0.14270    0.80440    0.03190    1.000
    O30      O        0.12950    0.74590    0.10200    1.000
    Tb4      Tb       0.43706    0.35610    0.44706    1.000
    O31      O        0.48280    0.30780    0.53520    1.000
    C109     C        0.50240    0.33270    0.58800    1.000
    C110     C        0.55350    0.38790    0.61050    1.000
    H91      H        0.57450    0.37560    0.64940    1.000
    H92      H        0.54130    0.44580    0.60620    1.000
    H93      H        0.57790    0.37810    0.59060    1.000
    C111     C        0.42620    0.25370    0.59610    1.000
    H94      H        0.43660    0.21010    0.57620    1.000
    H95      H        0.39490    0.28650    0.57030    1.000
    H96      H        0.41440    0.22870    0.62350    1.000
    N7       N        0.47670    0.30930    0.62440    1.000
    C112     C        0.50580    0.34370    0.68150    1.000
    H97      H        0.54690    0.34280    0.69210    1.000
    H98      H        0.49600    0.30990    0.70710    1.000
    H99      H        0.49330    0.40080    0.68240    1.000
    H100     H        0.59010    0.75600    0.10450    1.000
    H101     H        0.54440    0.82550    0.10110    1.000
    H102     H        0.56820    0.76490    0.15280    1.000
    H103     H        0.43520    0.61680    0.04550    1.000
    H104     H        0.44680    0.53970    0.08630    1.000
    H105     H        0.41840    0.62210    0.09730    1.000
    H106     H        0.52780    0.61750    0.19700    1.000
    H107     H        0.56360    0.68960    0.18420    1.000
    H108     H        0.50580    0.71110    0.19070    1.000
    O32      O        0.48650    0.70700    0.02920    1.000
    C113     C        0.51040    0.70920    0.08450    1.000
    C114     C        0.55740    0.76900    0.11320    1.000
    C115     C        0.44610    0.60000    0.08400    1.000
    N8       N        0.49360    0.65700    0.11830    1.000
    C116     C        0.52540    0.67000    0.17760    1.000
    C117     C        0.88210    0.07510    0.84410    1.000
    C118     C        0.85480    0.02920    0.79120    1.000
    C119     C        0.87640    0.03520    0.75090    1.000
    H109     H        0.90880    0.06890    0.75730    1.000
    C120     C        0.85120    0.99220    0.70040    1.000
    C121     C        0.80450    0.94360    0.69100    1.000
    C122     C        0.78260    0.93470    0.73300    1.000
    H110     H        0.75220    0.89770    0.72820    1.000
    C123     C        0.80670    0.98080    0.78010    1.000
    H111     H        0.78970    0.97960    0.80610    1.000
    C124     C        0.94570    0.01650    0.53600    1.000
    C125     C        0.92140    0.01150    0.57930    1.000
    C126     C        0.87490    0.96270    0.56990    1.000
    H112     H        0.85860    0.93320    0.53630    1.000
    C127     C        0.85050    0.95520    0.60970    1.000
    C128     C        0.87640    0.00000    0.65970    1.000
    C129     C        0.92330    0.04850    0.66730    1.000
    H113     H        0.94110    0.07680    0.70110    1.000
    C130     C        0.94570    0.05780    0.62750    1.000
    H114     H        0.97650    0.09440    0.63300    1.000
    C131     C        0.65540    0.74810    0.56980    1.000
    C132     C        0.70540    0.80450    0.58050    1.000
    C133     C        0.72990    0.84690    0.62800    1.000
    H115     H        0.71400    0.84180    0.65460    1.000
    C134     C        0.77690    0.89740    0.63990    1.000
    C135     C        0.80120    0.90290    0.59960    1.000
    C136     C        0.77420    0.85900    0.55010    1.000
    H116     H        0.78840    0.86410    0.52210    1.000
    C137     C        0.72910    0.81050    0.54140    1.000
    H117     H        0.71300    0.77980    0.50830    1.000
    O33      O        0.86290    0.06660    0.88090    1.000
    O34      O        0.92440    0.11950    0.85240    1.000
    O35      O        0.98120    0.07140    0.54140    1.000
    O36      O        0.92680    0.96880    0.49690    1.000
    O37      O        0.64270    0.69560    0.53190    1.000
    O38      O        0.62950    0.75410    0.60200    1.000
    Tb5      Tb       0.93706    0.14390    0.94706    1.000
    O39      O        0.98280    0.19220    0.03520    1.000
    C138     C        0.00240    0.16730    0.08800    1.000
    C139     C        0.05350    0.11210    0.11050    1.000
    H118     H        0.07450    0.12440    0.14940    1.000
    H119     H        0.04130    0.05420    0.10620    1.000
    H120     H        0.07790    0.12190    0.09060    1.000
    C140     C        0.92620    0.24630    0.09610    1.000
    H121     H        0.93660    0.28990    0.07620    1.000
    H122     H        0.89490    0.21350    0.07030    1.000
    H123     H        0.91440    0.27130    0.12350    1.000
    N9       N        0.97670    0.19070    0.12440    1.000
    C141     C        0.00580    0.15630    0.18150    1.000
    H124     H        0.04690    0.15720    0.19210    1.000
    H125     H        0.99600    0.19010    0.20710    1.000
    H126     H        0.99330    0.09920    0.18240    1.000
    H127     H        0.09010    0.74400    0.60450    1.000
    H128     H        0.04440    0.67450    0.60110    1.000
    H129     H        0.06820    0.73510    0.65280    1.000
    H130     H        0.93520    0.88320    0.54550    1.000
    H131     H        0.94680    0.96030    0.58630    1.000
    H132     H        0.91840    0.87790    0.59730    1.000
    H133     H        0.02780    0.88250    0.69700    1.000
    H134     H        0.06360    0.81040    0.68420    1.000
    H135     H        0.00580    0.78890    0.69070    1.000
    O40      O        0.98650    0.79300    0.52920    1.000
    C142     C        0.01040    0.79080    0.58450    1.000
    C143     C        0.05740    0.73100    0.61320    1.000
    C144     C        0.94610    0.90000    0.58400    1.000
    N10      N        0.99360    0.84300    0.61830    1.000
    C145     C        0.02540    0.83000    0.67760    1.000
    C146     C        0.38210    0.57510    0.84410    1.000
    C147     C        0.35480    0.52920    0.79120    1.000
    C148     C        0.37640    0.53520    0.75090    1.000
    H136     H        0.40880    0.56890    0.75730    1.000
    C149     C        0.35120    0.49220    0.70040    1.000
    C150     C        0.30450    0.44360    0.69100    1.000
    C151     C        0.28260    0.43470    0.73300    1.000
    H137     H        0.25220    0.39770    0.72820    1.000
    C152     C        0.30670    0.48080    0.78010    1.000
    H138     H        0.28970    0.47960    0.80610    1.000
    C153     C        0.44570    0.51650    0.53600    1.000
    C154     C        0.42140    0.51150    0.57930    1.000
    C155     C        0.37490    0.46270    0.56990    1.000
    H139     H        0.35860    0.43320    0.53630    1.000
    C156     C        0.35050    0.45520    0.60970    1.000
    C157     C        0.37640    0.50000    0.65970    1.000
    C158     C        0.42330    0.54850    0.66730    1.000
    H140     H        0.44110    0.57680    0.70110    1.000
    C159     C        0.44570    0.55780    0.62750    1.000
    H141     H        0.47650    0.59440    0.63300    1.000
    C160     C        0.15540    0.24810    0.56980    1.000
    C161     C        0.20540    0.30450    0.58050    1.000
    C162     C        0.22990    0.34690    0.62800    1.000
    H142     H        0.21400    0.34180    0.65460    1.000
    C163     C        0.27690    0.39740    0.63990    1.000
    C164     C        0.30120    0.40290    0.59960    1.000
    C165     C        0.27420    0.35900    0.55010    1.000
    H143     H        0.28840    0.36410    0.52210    1.000
    C166     C        0.22910    0.31050    0.54140    1.000
    H144     H        0.21300    0.27980    0.50830    1.000
    O41      O        0.36290    0.56660    0.88090    1.000
    O42      O        0.42440    0.61950    0.85240    1.000
    O43      O        0.48120    0.57140    0.54140    1.000
    O44      O        0.42680    0.46880    0.49690    1.000
    O45      O        0.14270    0.19560    0.53190    1.000
    O46      O        0.12950    0.25410    0.60200    1.000
    Tb6      Tb       0.43706    0.64390    0.94706    1.000
    O47      O        0.48280    0.69220    0.03520    1.000
    C167     C        0.50240    0.66730    0.08800    1.000
    C168     C        0.55350    0.61210    0.11050    1.000
    H145     H        0.57450    0.62440    0.14940    1.000
    H146     H        0.54130    0.55420    0.10620    1.000
    H147     H        0.57790    0.62190    0.09060    1.000
    C169     C        0.42620    0.74630    0.09610    1.000
    H148     H        0.43660    0.78990    0.07620    1.000
    H149     H        0.39490    0.71350    0.07030    1.000
    H150     H        0.41440    0.77130    0.12350    1.000
    N11      N        0.47670    0.69070    0.12440    1.000
    C170     C        0.50580    0.65630    0.18150    1.000
    H151     H        0.54690    0.65720    0.19210    1.000
    H152     H        0.49600    0.69010    0.20710    1.000
    H153     H        0.49330    0.59920    0.18240    1.000
    H154     H        0.59010    0.24400    0.60450    1.000
    H155     H        0.54440    0.17450    0.60110    1.000
    H156     H        0.56820    0.23510    0.65280    1.000
    H157     H        0.43520    0.38320    0.54550    1.000
    H158     H        0.44680    0.46030    0.58630    1.000
    H159     H        0.41840    0.37790    0.59730    1.000
    H160     H        0.52780    0.38250    0.69700    1.000
    H161     H        0.56360    0.31040    0.68420    1.000
    H162     H        0.50580    0.28890    0.69070    1.000
    O48      O        0.48650    0.29300    0.52920    1.000
    C171     C        0.51040    0.29080    0.58450    1.000
    C172     C        0.55740    0.23100    0.61320    1.000
    C173     C        0.44610    0.40000    0.58400    1.000
    N12      N        0.49360    0.34300    0.61830    1.000
    C174     C        0.52540    0.33000    0.67760    1.000
    C175     C        0.11790    0.07510    0.65590    1.000
    C176     C        0.14520    0.02920    0.70880    1.000
    C177     C        0.12360    0.03520    0.74910    1.000
    H163     H        0.09120    0.06890    0.74270    1.000
    C178     C        0.14880    0.99220    0.79960    1.000
    C179     C        0.19550    0.94360    0.80900    1.000
    C180     C        0.21740    0.93470    0.76700    1.000
    H164     H        0.24780    0.89770    0.77180    1.000
    C181     C        0.19330    0.98080    0.71990    1.000
    H165     H        0.21030    0.97960    0.69390    1.000
    C182     C        0.05430    0.01650    0.96400    1.000
    C183     C        0.07860    0.01150    0.92070    1.000
    C184     C        0.12510    0.96270    0.93010    1.000
    H166     H        0.14140    0.93320    0.96370    1.000
    C185     C        0.14950    0.95520    0.89030    1.000
    C186     C        0.12360    0.00000    0.84030    1.000
    C187     C        0.07670    0.04850    0.83270    1.000
    H167     H        0.05890    0.07680    0.79890    1.000
    C188     C        0.05430    0.05780    0.87250    1.000
    H168     H        0.02350    0.09440    0.86700    1.000
    C189     C        0.34460    0.74810    0.93020    1.000
    C190     C        0.29460    0.80450    0.91950    1.000
    C191     C        0.27010    0.84690    0.87200    1.000
    H169     H        0.28600    0.84180    0.84540    1.000
    C192     C        0.22310    0.89740    0.86010    1.000
    C193     C        0.19880    0.90290    0.90040    1.000
    C194     C        0.22580    0.85900    0.94990    1.000
    H170     H        0.21160    0.86410    0.97790    1.000
    C195     C        0.27090    0.81050    0.95860    1.000
    H171     H        0.28700    0.77980    0.99170    1.000
    O49      O        0.13710    0.06660    0.61910    1.000
    O50      O        0.07560    0.11950    0.64760    1.000
    O51      O        0.01880    0.07140    0.95860    1.000
    O52      O        0.07320    0.96880    0.00310    1.000
    O53      O        0.35730    0.69560    0.96810    1.000
    O54      O        0.37050    0.75410    0.89800    1.000
    Tb7      Tb       0.06294    0.14390    0.55294    1.000
    O55      O        0.01720    0.19220    0.46480    1.000
    C196     C        0.99760    0.16730    0.41200    1.000
    C197     C        0.94650    0.11210    0.38950    1.000
    H172     H        0.92550    0.12440    0.35060    1.000
    H173     H        0.95870    0.05420    0.39380    1.000
    H174     H        0.92210    0.12190    0.40940    1.000
    C198     C        0.07380    0.24630    0.40390    1.000
    H175     H        0.06340    0.28990    0.42380    1.000
    H176     H        0.10510    0.21350    0.42970    1.000
    H177     H        0.08560    0.27130    0.37650    1.000
    N13      N        0.02330    0.19070    0.37560    1.000
    C199     C        0.99420    0.15630    0.31850    1.000
    H178     H        0.95310    0.15720    0.30790    1.000
    H179     H        0.00400    0.19010    0.29290    1.000
    H180     H        0.00670    0.09920    0.31760    1.000
    H181     H        0.90990    0.74400    0.89550    1.000
    H182     H        0.95560    0.67450    0.89890    1.000
    H183     H        0.93180    0.73510    0.84720    1.000
    H184     H        0.06480    0.88320    0.95450    1.000
    H185     H        0.05320    0.96030    0.91370    1.000
    H186     H        0.08160    0.87790    0.90270    1.000
    H187     H        0.97220    0.88250    0.80300    1.000
    H188     H        0.93640    0.81040    0.81580    1.000
    H189     H        0.99420    0.78890    0.80930    1.000
    O56      O        0.01350    0.79300    0.97080    1.000
    C200     C        0.98960    0.79080    0.91550    1.000
    C201     C        0.94260    0.73100    0.88680    1.000
    C202     C        0.05390    0.90000    0.91600    1.000
    N14      N        0.00640    0.84300    0.88170    1.000
    C203     C        0.97460    0.83000    0.82240    1.000
    C204     C        0.61790    0.57510    0.65590    1.000
    C205     C        0.64520    0.52920    0.70880    1.000
    C206     C        0.62360    0.53520    0.74910    1.000
    H190     H        0.59120    0.56890    0.74270    1.000
    C207     C        0.64880    0.49220    0.79960    1.000
    C208     C        0.69550    0.44360    0.80900    1.000
    C209     C        0.71740    0.43470    0.76700    1.000
    H191     H        0.74780    0.39770    0.77180    1.000
    C210     C        0.69330    0.48080    0.71990    1.000
    H192     H        0.71030    0.47960    0.69390    1.000
    C211     C        0.55430    0.51650    0.96400    1.000
    C212     C        0.57860    0.51150    0.92070    1.000
    C213     C        0.62510    0.46270    0.93010    1.000
    H193     H        0.64140    0.43320    0.96370    1.000
    C214     C        0.64950    0.45520    0.89030    1.000
    C215     C        0.62360    0.50000    0.84030    1.000
    C216     C        0.57670    0.54850    0.83270    1.000
    H194     H        0.55890    0.57680    0.79890    1.000
    C217     C        0.55430    0.55780    0.87250    1.000
    H195     H        0.52350    0.59440    0.86700    1.000
    C218     C        0.84460    0.24810    0.93020    1.000
    C219     C        0.79460    0.30450    0.91950    1.000
    C220     C        0.77010    0.34690    0.87200    1.000
    H196     H        0.78600    0.34180    0.84540    1.000
    C221     C        0.72310    0.39740    0.86010    1.000
    C222     C        0.69880    0.40290    0.90040    1.000
    C223     C        0.72580    0.35900    0.94990    1.000
    H197     H        0.71160    0.36410    0.97790    1.000
    C224     C        0.77090    0.31050    0.95860    1.000
    H198     H        0.78700    0.27980    0.99170    1.000
    O57      O        0.63710    0.56660    0.61910    1.000
    O58      O        0.57560    0.61950    0.64760    1.000
    O59      O        0.51880    0.57140    0.95860    1.000
    O60      O        0.57320    0.46880    0.00310    1.000
    O61      O        0.85730    0.19560    0.96810    1.000
    O62      O        0.87050    0.25410    0.89800    1.000
    Tb8      Tb       0.56294    0.64390    0.55294    1.000
    O63      O        0.51720    0.69220    0.46480    1.000
    C225     C        0.49760    0.66730    0.41200    1.000
    C226     C        0.44650    0.61210    0.38950    1.000
    H199     H        0.42550    0.62440    0.35060    1.000
    H200     H        0.45870    0.55420    0.39380    1.000
    H201     H        0.42210    0.62190    0.40940    1.000
    C227     C        0.57380    0.74630    0.40390    1.000
    H202     H        0.56340    0.78990    0.42380    1.000
    H203     H        0.60510    0.71350    0.42970    1.000
    H204     H        0.58560    0.77130    0.37650    1.000
    N15      N        0.52330    0.69070    0.37560    1.000
    C228     C        0.49420    0.65630    0.31850    1.000
    H205     H        0.45310    0.65720    0.30790    1.000
    H206     H        0.50400    0.69010    0.29290    1.000
    H207     H        0.50670    0.59920    0.31760    1.000
    H208     H        0.40990    0.24400    0.89550    1.000
    H209     H        0.45560    0.17450    0.89890    1.000
    H210     H        0.43180    0.23510    0.84720    1.000
    H211     H        0.56480    0.38320    0.95450    1.000
    H212     H        0.55320    0.46030    0.91370    1.000
    H213     H        0.58160    0.37790    0.90270    1.000
    H214     H        0.47220    0.38250    0.80300    1.000
    H215     H        0.43640    0.31040    0.81580    1.000
    H216     H        0.49420    0.28890    0.80930    1.000
    O64      O        0.51350    0.29300    0.97080    1.000
    C229     C        0.48960    0.29080    0.91550    1.000
    C230     C        0.44260    0.23100    0.88680    1.000
    C231     C        0.55390    0.40000    0.91600    1.000
    N16      N        0.50640    0.34300    0.88170    1.000
    C232     C        0.47460    0.33000    0.82240    1.000
