# CIF file generated by openbabel 3.1.0, see https://openbabel.org
data_I
_chemical_name_common 'image0'
_cell_length_a 21.966
_cell_length_b 16.6288
_cell_length_c 25.5315
_cell_angle_alpha 90
_cell_angle_beta 115.158
_cell_angle_gamma 90
_space_group_name_H-M_alt 'P 1'
_space_group_name_Hall 'P 1'
loop_
    _symmetry_equiv_pos_as_xyz
    x,y,z
loop_
    _atom_site_label
    _atom_site_type_symbol
    _atom_site_fract_x
    _atom_site_fract_y
    _atom_site_fract_z
    _atom_site_occupancy
    Ag1      Ag       0.34423    0.95693    0.36706    1.000
    Ag2      Ag       0.32195    0.25558    0.86659    1.000
    C1       C        0.59760    0.47100    0.99930    1.000
    C2       C        0.77710    0.63820    0.00850    1.000
    H1       H        0.79800    0.63460    0.04860    1.000
    C3       C        0.29740    0.08420    0.50400    1.000
    H2       H        0.31960    0.08840    0.54400    1.000
    C4       C        0.12330    0.25650    0.50070    1.000
    C5       C        0.50340    0.38480    0.99480    1.000
    H3       H        0.52290    0.38350    0.03500    1.000
    C6       C        0.03280    0.31030    0.40960    1.000
    H4       H        0.05400    0.28860    0.38820    1.000
    C7       C        0.05960    0.30140    0.46820    1.000
    C8       C        0.68160    0.55240    0.00560    1.000
    C9       C        0.20940    0.22600    0.58600    1.000
    C10      C        0.44420    0.34440    0.96320    1.000
    H5       H        0.42460    0.31580    0.98340    1.000
    C11      C        0.53330    0.42720    0.96540    1.000
    C12      C        0.24260    0.23660    0.64970    1.000
    C13      C        0.71990    0.65320    0.89070    1.000
    H6       H        0.70000    0.65830    0.85070    1.000
    C14      C        0.67930    0.45650    0.17980    1.000
    H7       H        0.63500    0.43950    0.15970    1.000
    C15      C        0.23550    0.12130    0.47370    1.000
    C16      C        0.23550    0.06440    0.38750    1.000
    H8       H        0.21420    0.05750    0.34750    1.000
    C17      C        0.71450    0.60110    0.97640    1.000
    C18      C        0.02560    0.33500    0.49800    1.000
    H9       H        0.04280    0.33080    0.53810    1.000
    C19      C        0.20480    0.17240    0.50330    1.000
    C20      C        0.67970    0.50210    0.08620    1.000
    C21      C        0.71220    0.49180    0.15060    1.000
    C22      C        0.20390    0.10950    0.41380    1.000
    H10      H        0.16180    0.13200    0.39200    1.000
    C23      C        0.68610    0.61000    0.91720    1.000
    H11      H        0.64440    0.58720    0.89480    1.000
    C24      C        0.32520    0.04120    0.47330    1.000
    H12      H        0.36750    0.01870    0.49380    1.000
    C25      C        0.97310    0.35260    0.38280    1.000
    H13      H        0.95590    0.36050    0.34300    1.000
    C26      C        0.96720    0.37380    0.46770    1.000
    H14      H        0.94500    0.39610    0.48810    1.000
    C27      C        0.80610    0.50480    0.24100    1.000
    H15      H        0.85030    0.52160    0.26190    1.000
    C28      C        0.80660    0.68060    0.97810    1.000
    H16      H        0.84770    0.70560    0.99920    1.000
    C29      C        0.50220    0.42800    0.90570    1.000
    H17      H        0.51990    0.45770    0.88460    1.000
    C30      C        0.77790    0.51610    0.18200    1.000
    H18      H        0.80230    0.53950    0.16390    1.000
    C31      C        0.44430    0.38350    0.87820    1.000
    H19      H        0.42540    0.38080    0.83800    1.000
    C32      C        0.71180    0.44620    0.23880    1.000
    H20      H        0.68910    0.42080    0.25770    1.000
    C33      C        0.24500    0.29440    0.73560    1.000
    H21      H        0.22570    0.32890    0.75300    1.000
    C34      C        0.30210    0.19900    0.68320    1.000
    H22      H        0.32460    0.16790    0.66670    1.000
    C35      C        0.21460    0.28710    0.67650    1.000
    H23      H        0.17570    0.31580    0.65470    1.000
    C36      C        0.32740    0.20920    0.74250    1.000
    H24      H        0.36660    0.18160    0.76530    1.000
    N1       N        0.29550    0.03000    0.41660    1.000
    N2       N        0.93940    0.38230    0.41070    1.000
    N3       N        0.30050    0.25470    0.76930    1.000
    N4       N        0.23750    0.17700    0.56130    1.000
    N5       N        0.14780    0.21030    0.47110    1.000
    N6       N        0.15250    0.26640    0.55780    1.000
    N7       N        0.41340    0.34390    0.90580    1.000
    N8       N        0.77530    0.47180    0.27010    1.000
    N9       N        0.77960    0.68730    0.92070    1.000
    N10      N        0.62540    0.51280    0.97160    1.000
    N11      N        0.62260    0.46310    0.05730    1.000
    N12      N        0.71110    0.54950    0.06340    1.000
    Ag3      Ag       0.84423    0.45693    0.36706    1.000
    Ag4      Ag       0.82195    0.75558    0.86659    1.000
    C37      C        0.09760    0.97100    0.99930    1.000
    C38      C        0.27710    0.13820    0.00850    1.000
    H25      H        0.29800    0.13460    0.04860    1.000
    C39      C        0.79740    0.58420    0.50400    1.000
    H26      H        0.81960    0.58840    0.54400    1.000
    C40      C        0.62330    0.75650    0.50070    1.000
    C41      C        0.00340    0.88480    0.99480    1.000
    H27      H        0.02290    0.88350    0.03500    1.000
    C42      C        0.53280    0.81030    0.40960    1.000
    H28      H        0.55400    0.78860    0.38820    1.000
    C43      C        0.55960    0.80140    0.46820    1.000
    C44      C        0.18160    0.05240    0.00560    1.000
    C45      C        0.70940    0.72600    0.58600    1.000
    C46      C        0.94420    0.84440    0.96320    1.000
    H29      H        0.92460    0.81580    0.98340    1.000
    C47      C        0.03330    0.92720    0.96540    1.000
    C48      C        0.74260    0.73660    0.64970    1.000
    C49      C        0.21990    0.15320    0.89070    1.000
    H30      H        0.20000    0.15830    0.85070    1.000
    C50      C        0.17930    0.95650    0.17980    1.000
    H31      H        0.13500    0.93950    0.15970    1.000
    C51      C        0.73550    0.62130    0.47370    1.000
    C52      C        0.73550    0.56440    0.38750    1.000
    H32      H        0.71420    0.55750    0.34750    1.000
    C53      C        0.21450    0.10110    0.97640    1.000
    C54      C        0.52560    0.83500    0.49800    1.000
    H33      H        0.54280    0.83080    0.53810    1.000
    C55      C        0.70480    0.67240    0.50330    1.000
    C56      C        0.17970    0.00210    0.08620    1.000
    C57      C        0.21220    0.99180    0.15060    1.000
    C58      C        0.70390    0.60950    0.41380    1.000
    H34      H        0.66180    0.63200    0.39200    1.000
    C59      C        0.18610    0.11000    0.91720    1.000
    H35      H        0.14440    0.08720    0.89480    1.000
    C60      C        0.82520    0.54120    0.47330    1.000
    H36      H        0.86750    0.51870    0.49380    1.000
    C61      C        0.47310    0.85260    0.38280    1.000
    H37      H        0.45590    0.86050    0.34300    1.000
    C62      C        0.46720    0.87380    0.46770    1.000
    H38      H        0.44500    0.89610    0.48810    1.000
    C63      C        0.30610    0.00480    0.24100    1.000
    H39      H        0.35030    0.02160    0.26190    1.000
    C64      C        0.30660    0.18060    0.97810    1.000
    H40      H        0.34770    0.20560    0.99920    1.000
    C65      C        0.00220    0.92800    0.90570    1.000
    H41      H        0.01990    0.95770    0.88460    1.000
    C66      C        0.27790    0.01610    0.18200    1.000
    H42      H        0.30230    0.03950    0.16390    1.000
    C67      C        0.94430    0.88350    0.87820    1.000
    H43      H        0.92540    0.88080    0.83800    1.000
    C68      C        0.21180    0.94620    0.23880    1.000
    H44      H        0.18910    0.92080    0.25770    1.000
    C69      C        0.74500    0.79440    0.73560    1.000
    H45      H        0.72570    0.82890    0.75300    1.000
    C70      C        0.80210    0.69900    0.68320    1.000
    H46      H        0.82460    0.66790    0.66670    1.000
    C71      C        0.71460    0.78710    0.67650    1.000
    H47      H        0.67570    0.81580    0.65470    1.000
    C72      C        0.82740    0.70920    0.74250    1.000
    H48      H        0.86660    0.68160    0.76530    1.000
    N13      N        0.79550    0.53000    0.41660    1.000
    N14      N        0.43940    0.88230    0.41070    1.000
    N15      N        0.80050    0.75470    0.76930    1.000
    N16      N        0.73750    0.67700    0.56130    1.000
    N17      N        0.64780    0.71030    0.47110    1.000
    N18      N        0.65250    0.76640    0.55780    1.000
    N19      N        0.91340    0.84390    0.90580    1.000
    N20      N        0.27530    0.97180    0.27010    1.000
    N21      N        0.27960    0.18730    0.92070    1.000
    N22      N        0.12540    0.01280    0.97160    1.000
    N23      N        0.12260    0.96310    0.05730    1.000
    N24      N        0.21110    0.04950    0.06340    1.000
    Ag5      Ag       0.65577    0.95693    0.13294    1.000
    Ag6      Ag       0.67805    0.25558    0.63341    1.000
    C73      C        0.40240    0.47100    0.50070    1.000
    C74      C        0.22290    0.63820    0.49150    1.000
    H49      H        0.20200    0.63460    0.45140    1.000
    C75      C        0.70260    0.08420    0.99600    1.000
    H50      H        0.68040    0.08840    0.95600    1.000
    C76      C        0.87670    0.25650    0.99930    1.000
    C77      C        0.49660    0.38480    0.50520    1.000
    H51      H        0.47710    0.38350    0.46500    1.000
    C78      C        0.96720    0.31030    0.09040    1.000
    H52      H        0.94600    0.28860    0.11180    1.000
    C79      C        0.94040    0.30140    0.03180    1.000
    C80      C        0.31840    0.55240    0.49440    1.000
    C81      C        0.79060    0.22600    0.91400    1.000
    C82      C        0.55580    0.34440    0.53680    1.000
    H53      H        0.57540    0.31580    0.51660    1.000
    C83      C        0.46670    0.42720    0.53460    1.000
    C84      C        0.75740    0.23660    0.85030    1.000
    C85      C        0.28010    0.65320    0.60930    1.000
    H54      H        0.30000    0.65830    0.64930    1.000
    C86      C        0.32070    0.45650    0.32020    1.000
    H55      H        0.36500    0.43950    0.34030    1.000
    C87      C        0.76450    0.12130    0.02630    1.000
    C88      C        0.76450    0.06440    0.11250    1.000
    H56      H        0.78580    0.05750    0.15250    1.000
    C89      C        0.28550    0.60110    0.52360    1.000
    C90      C        0.97440    0.33500    0.00200    1.000
    H57      H        0.95720    0.33080    0.96190    1.000
    C91      C        0.79520    0.17240    0.99670    1.000
    C92      C        0.32030    0.50210    0.41380    1.000
    C93      C        0.28780    0.49180    0.34940    1.000
    C94      C        0.79610    0.10950    0.08620    1.000
    H58      H        0.83820    0.13200    0.10800    1.000
    C95      C        0.31390    0.61000    0.58280    1.000
    H59      H        0.35560    0.58720    0.60520    1.000
    C96      C        0.67480    0.04120    0.02670    1.000
    H60      H        0.63250    0.01870    0.00620    1.000
    C97      C        0.02690    0.35260    0.11720    1.000
    H61      H        0.04410    0.36050    0.15700    1.000
    C98      C        0.03280    0.37380    0.03230    1.000
    H62      H        0.05500    0.39610    0.01190    1.000
    C99      C        0.19390    0.50480    0.25900    1.000
    H63      H        0.14970    0.52160    0.23810    1.000
    C100     C        0.19340    0.68060    0.52190    1.000
    H64      H        0.15230    0.70560    0.50080    1.000
    C101     C        0.49780    0.42800    0.59430    1.000
    H65      H        0.48010    0.45770    0.61540    1.000
    C102     C        0.22210    0.51610    0.31800    1.000
    H66      H        0.19770    0.53950    0.33610    1.000
    C103     C        0.55570    0.38350    0.62180    1.000
    H67      H        0.57460    0.38080    0.66200    1.000
    C104     C        0.28820    0.44620    0.26120    1.000
    H68      H        0.31090    0.42080    0.24230    1.000
    C105     C        0.75500    0.29440    0.76440    1.000
    H69      H        0.77430    0.32890    0.74700    1.000
    C106     C        0.69790    0.19900    0.81680    1.000
    H70      H        0.67540    0.16790    0.83330    1.000
    C107     C        0.78540    0.28710    0.82350    1.000
    H71      H        0.82430    0.31580    0.84530    1.000
    C108     C        0.67260    0.20920    0.75750    1.000
    H72      H        0.63340    0.18160    0.73470    1.000
    N25      N        0.70450    0.03000    0.08340    1.000
    N26      N        0.06060    0.38230    0.08930    1.000
    N27      N        0.69950    0.25470    0.73070    1.000
    N28      N        0.76250    0.17700    0.93870    1.000
    N29      N        0.85220    0.21030    0.02890    1.000
    N30      N        0.84750    0.26640    0.94220    1.000
    N31      N        0.58660    0.34390    0.59420    1.000
    N32      N        0.22470    0.47180    0.22990    1.000
    N33      N        0.22040    0.68730    0.57930    1.000
    N34      N        0.37460    0.51280    0.52840    1.000
    N35      N        0.37740    0.46310    0.44270    1.000
    N36      N        0.28890    0.54950    0.43660    1.000
    Ag7      Ag       0.15577    0.45693    0.13294    1.000
    Ag8      Ag       0.17805    0.75558    0.63341    1.000
    C109     C        0.90240    0.97100    0.50070    1.000
    C110     C        0.72290    0.13820    0.49150    1.000
    H73      H        0.70200    0.13460    0.45140    1.000
    C111     C        0.20260    0.58420    0.99600    1.000
    H74      H        0.18040    0.58840    0.95600    1.000
    C112     C        0.37670    0.75650    0.99930    1.000
    C113     C        0.99660    0.88480    0.50520    1.000
    H75      H        0.97710    0.88350    0.46500    1.000
    C114     C        0.46720    0.81030    0.09040    1.000
    H76      H        0.44600    0.78860    0.11180    1.000
    C115     C        0.44040    0.80140    0.03180    1.000
    C116     C        0.81840    0.05240    0.49440    1.000
    C117     C        0.29060    0.72600    0.91400    1.000
    C118     C        0.05580    0.84440    0.53680    1.000
    H77      H        0.07540    0.81580    0.51660    1.000
    C119     C        0.96670    0.92720    0.53460    1.000
    C120     C        0.25740    0.73660    0.85030    1.000
    C121     C        0.78010    0.15320    0.60930    1.000
    H78      H        0.80000    0.15830    0.64930    1.000
    C122     C        0.82070    0.95650    0.32020    1.000
    H79      H        0.86500    0.93950    0.34030    1.000
    C123     C        0.26450    0.62130    0.02630    1.000
    C124     C        0.26450    0.56440    0.11250    1.000
    H80      H        0.28580    0.55750    0.15250    1.000
    C125     C        0.78550    0.10110    0.52360    1.000
    C126     C        0.47440    0.83500    0.00200    1.000
    H81      H        0.45720    0.83080    0.96190    1.000
    C127     C        0.29520    0.67240    0.99670    1.000
    C128     C        0.82030    0.00210    0.41380    1.000
    C129     C        0.78780    0.99180    0.34940    1.000
    C130     C        0.29610    0.60950    0.08620    1.000
    H82      H        0.33820    0.63200    0.10800    1.000
    C131     C        0.81390    0.11000    0.58280    1.000
    H83      H        0.85560    0.08720    0.60520    1.000
    C132     C        0.17480    0.54120    0.02670    1.000
    H84      H        0.13250    0.51870    0.00620    1.000
    C133     C        0.52690    0.85260    0.11720    1.000
    H85      H        0.54410    0.86050    0.15700    1.000
    C134     C        0.53280    0.87380    0.03230    1.000
    H86      H        0.55500    0.89610    0.01190    1.000
    C135     C        0.69390    0.00480    0.25900    1.000
    H87      H        0.64970    0.02160    0.23810    1.000
    C136     C        0.69340    0.18060    0.52190    1.000
    H88      H        0.65230    0.20560    0.50080    1.000
    C137     C        0.99780    0.92800    0.59430    1.000
    H89      H        0.98010    0.95770    0.61540    1.000
    C138     C        0.72210    0.01610    0.31800    1.000
    H90      H        0.69770    0.03950    0.33610    1.000
    C139     C        0.05570    0.88350    0.62180    1.000
    H91      H        0.07460    0.88080    0.66200    1.000
    C140     C        0.78820    0.94620    0.26120    1.000
    H92      H        0.81090    0.92080    0.24230    1.000
    C141     C        0.25500    0.79440    0.76440    1.000
    H93      H        0.27430    0.82890    0.74700    1.000
    C142     C        0.19790    0.69900    0.81680    1.000
    H94      H        0.17540    0.66790    0.83330    1.000
    C143     C        0.28540    0.78710    0.82350    1.000
    H95      H        0.32430    0.81580    0.84530    1.000
    C144     C        0.17260    0.70920    0.75750    1.000
    H96      H        0.13340    0.68160    0.73470    1.000
    N37      N        0.20450    0.53000    0.08340    1.000
    N38      N        0.56060    0.88230    0.08930    1.000
    N39      N        0.19950    0.75470    0.73070    1.000
    N40      N        0.26250    0.67700    0.93870    1.000
    N41      N        0.35220    0.71030    0.02890    1.000
    N42      N        0.34750    0.76640    0.94220    1.000
    N43      N        0.08660    0.84390    0.59420    1.000
    N44      N        0.72470    0.97180    0.22990    1.000
    N45      N        0.72040    0.18730    0.57930    1.000
    N46      N        0.87460    0.01280    0.52840    1.000
    N47      N        0.87740    0.96310    0.44270    1.000
    N48      N        0.78890    0.04950    0.43660    1.000
    Ag9      Ag       0.65577    0.04307    0.63294    1.000
    Ag10     Ag       0.67805    0.74442    0.13341    1.000
    C145     C        0.40240    0.52900    0.00070    1.000
    C146     C        0.22290    0.36180    0.99150    1.000
    H97      H        0.20200    0.36540    0.95140    1.000
    C147     C        0.70260    0.91580    0.49600    1.000
    H98      H        0.68040    0.91160    0.45600    1.000
    C148     C        0.87670    0.74350    0.49930    1.000
    C149     C        0.49660    0.61520    0.00520    1.000
    H99      H        0.47710    0.61650    0.96500    1.000
    C150     C        0.96720    0.68970    0.59040    1.000
    H100     H        0.94600    0.71140    0.61180    1.000
    C151     C        0.94040    0.69860    0.53180    1.000
    C152     C        0.31840    0.44760    0.99440    1.000
    C153     C        0.79060    0.77400    0.41400    1.000
    C154     C        0.55580    0.65560    0.03680    1.000
    H101     H        0.57540    0.68420    0.01660    1.000
    C155     C        0.46670    0.57280    0.03460    1.000
    C156     C        0.75740    0.76340    0.35030    1.000
    C157     C        0.28010    0.34680    0.10930    1.000
    H102     H        0.30000    0.34170    0.14930    1.000
    C158     C        0.32070    0.54350    0.82020    1.000
    H103     H        0.36500    0.56050    0.84030    1.000
    C159     C        0.76450    0.87870    0.52630    1.000
    C160     C        0.76450    0.93560    0.61250    1.000
    H104     H        0.78580    0.94250    0.65250    1.000
    C161     C        0.28550    0.39890    0.02360    1.000
    C162     C        0.97440    0.66500    0.50200    1.000
    H105     H        0.95720    0.66920    0.46190    1.000
    C163     C        0.79520    0.82760    0.49670    1.000
    C164     C        0.32030    0.49790    0.91380    1.000
    C165     C        0.28780    0.50820    0.84940    1.000
    C166     C        0.79610    0.89050    0.58620    1.000
    H106     H        0.83820    0.86800    0.60800    1.000
    C167     C        0.31390    0.39000    0.08280    1.000
    H107     H        0.35560    0.41280    0.10520    1.000
    C168     C        0.67480    0.95880    0.52670    1.000
    H108     H        0.63250    0.98130    0.50620    1.000
    C169     C        0.02690    0.64740    0.61720    1.000
    H109     H        0.04410    0.63950    0.65700    1.000
    C170     C        0.03280    0.62620    0.53230    1.000
    H110     H        0.05500    0.60390    0.51190    1.000
    C171     C        0.19390    0.49520    0.75900    1.000
    H111     H        0.14970    0.47840    0.73810    1.000
    C172     C        0.19340    0.31940    0.02190    1.000
    H112     H        0.15230    0.29440    0.00080    1.000
    C173     C        0.49780    0.57200    0.09430    1.000
    H113     H        0.48010    0.54230    0.11540    1.000
    C174     C        0.22210    0.48390    0.81800    1.000
    H114     H        0.19770    0.46050    0.83610    1.000
    C175     C        0.55570    0.61650    0.12180    1.000
    H115     H        0.57460    0.61920    0.16200    1.000
    C176     C        0.28820    0.55380    0.76120    1.000
    H116     H        0.31090    0.57920    0.74230    1.000
    C177     C        0.75500    0.70560    0.26440    1.000
    H117     H        0.77430    0.67110    0.24700    1.000
    C178     C        0.69790    0.80100    0.31680    1.000
    H118     H        0.67540    0.83210    0.33330    1.000
    C179     C        0.78540    0.71290    0.32350    1.000
    H119     H        0.82430    0.68420    0.34530    1.000
    C180     C        0.67260    0.79080    0.25750    1.000
    H120     H        0.63340    0.81840    0.23470    1.000
    N49      N        0.70450    0.97000    0.58340    1.000
    N50      N        0.06060    0.61770    0.58930    1.000
    N51      N        0.69950    0.74530    0.23070    1.000
    N52      N        0.76250    0.82300    0.43870    1.000
    N53      N        0.85220    0.78970    0.52890    1.000
    N54      N        0.84750    0.73360    0.44220    1.000
    N55      N        0.58660    0.65610    0.09420    1.000
    N56      N        0.22470    0.52820    0.72990    1.000
    N57      N        0.22040    0.31270    0.07930    1.000
    N58      N        0.37460    0.48720    0.02840    1.000
    N59      N        0.37740    0.53690    0.94270    1.000
    N60      N        0.28890    0.45050    0.93660    1.000
    Ag11     Ag       0.15577    0.54307    0.63294    1.000
    Ag12     Ag       0.17805    0.24442    0.13341    1.000
    C181     C        0.90240    0.02900    0.00070    1.000
    C182     C        0.72290    0.86180    0.99150    1.000
    H121     H        0.70200    0.86540    0.95140    1.000
    C183     C        0.20260    0.41580    0.49600    1.000
    H122     H        0.18040    0.41160    0.45600    1.000
    C184     C        0.37670    0.24350    0.49930    1.000
    C185     C        0.99660    0.11520    0.00520    1.000
    H123     H        0.97710    0.11650    0.96500    1.000
    C186     C        0.46720    0.18970    0.59040    1.000
    H124     H        0.44600    0.21140    0.61180    1.000
    C187     C        0.44040    0.19860    0.53180    1.000
    C188     C        0.81840    0.94760    0.99440    1.000
    C189     C        0.29060    0.27400    0.41400    1.000
    C190     C        0.05580    0.15560    0.03680    1.000
    H125     H        0.07540    0.18420    0.01660    1.000
    C191     C        0.96670    0.07280    0.03460    1.000
    C192     C        0.25740    0.26340    0.35030    1.000
    C193     C        0.78010    0.84680    0.10930    1.000
    H126     H        0.80000    0.84170    0.14930    1.000
    C194     C        0.82070    0.04350    0.82020    1.000
    H127     H        0.86500    0.06050    0.84030    1.000
    C195     C        0.26450    0.37870    0.52630    1.000
    C196     C        0.26450    0.43560    0.61250    1.000
    H128     H        0.28580    0.44250    0.65250    1.000
    C197     C        0.78550    0.89890    0.02360    1.000
    C198     C        0.47440    0.16500    0.50200    1.000
    H129     H        0.45720    0.16920    0.46190    1.000
    C199     C        0.29520    0.32760    0.49670    1.000
    C200     C        0.82030    0.99790    0.91380    1.000
    C201     C        0.78780    0.00820    0.84940    1.000
    C202     C        0.29610    0.39050    0.58620    1.000
    H130     H        0.33820    0.36800    0.60800    1.000
    C203     C        0.81390    0.89000    0.08280    1.000
    H131     H        0.85560    0.91280    0.10520    1.000
    C204     C        0.17480    0.45880    0.52670    1.000
    H132     H        0.13250    0.48130    0.50620    1.000
    C205     C        0.52690    0.14740    0.61720    1.000
    H133     H        0.54410    0.13950    0.65700    1.000
    C206     C        0.53280    0.12620    0.53230    1.000
    H134     H        0.55500    0.10390    0.51190    1.000
    C207     C        0.69390    0.99520    0.75900    1.000
    H135     H        0.64970    0.97840    0.73810    1.000
    C208     C        0.69340    0.81940    0.02190    1.000
    H136     H        0.65230    0.79440    0.00080    1.000
    C209     C        0.99780    0.07200    0.09430    1.000
    H137     H        0.98010    0.04230    0.11540    1.000
    C210     C        0.72210    0.98390    0.81800    1.000
    H138     H        0.69770    0.96050    0.83610    1.000
    C211     C        0.05570    0.11650    0.12180    1.000
    H139     H        0.07460    0.11920    0.16200    1.000
    C212     C        0.78820    0.05380    0.76120    1.000
    H140     H        0.81090    0.07920    0.74230    1.000
    C213     C        0.25500    0.20560    0.26440    1.000
    H141     H        0.27430    0.17110    0.24700    1.000
    C214     C        0.19790    0.30100    0.31680    1.000
    H142     H        0.17540    0.33210    0.33330    1.000
    C215     C        0.28540    0.21290    0.32350    1.000
    H143     H        0.32430    0.18420    0.34530    1.000
    C216     C        0.17260    0.29080    0.25750    1.000
    H144     H        0.13340    0.31840    0.23470    1.000
    N61      N        0.20450    0.47000    0.58340    1.000
    N62      N        0.56060    0.11770    0.58930    1.000
    N63      N        0.19950    0.24530    0.23070    1.000
    N64      N        0.26250    0.32300    0.43870    1.000
    N65      N        0.35220    0.28970    0.52890    1.000
    N66      N        0.34750    0.23360    0.44220    1.000
    N67      N        0.08660    0.15610    0.09420    1.000
    N68      N        0.72470    0.02820    0.72990    1.000
    N69      N        0.72040    0.81270    0.07930    1.000
    N70      N        0.87460    0.98720    0.02840    1.000
    N71      N        0.87740    0.03690    0.94270    1.000
    N72      N        0.78890    0.95050    0.93660    1.000
    Ag13     Ag       0.34423    0.04307    0.86706    1.000
    Ag14     Ag       0.32195    0.74442    0.36659    1.000
    C217     C        0.59760    0.52900    0.49930    1.000
    C218     C        0.77710    0.36180    0.50850    1.000
    H145     H        0.79800    0.36540    0.54860    1.000
    C219     C        0.29740    0.91580    0.00400    1.000
    H146     H        0.31960    0.91160    0.04400    1.000
    C220     C        0.12330    0.74350    0.00070    1.000
    C221     C        0.50340    0.61520    0.49480    1.000
    H147     H        0.52290    0.61650    0.53500    1.000
    C222     C        0.03280    0.68970    0.90960    1.000
    H148     H        0.05400    0.71140    0.88820    1.000
    C223     C        0.05960    0.69860    0.96820    1.000
    C224     C        0.68160    0.44760    0.50560    1.000
    C225     C        0.20940    0.77400    0.08600    1.000
    C226     C        0.44420    0.65560    0.46320    1.000
    H149     H        0.42460    0.68420    0.48340    1.000
    C227     C        0.53330    0.57280    0.46540    1.000
    C228     C        0.24260    0.76340    0.14970    1.000
    C229     C        0.71990    0.34680    0.39070    1.000
    H150     H        0.70000    0.34170    0.35070    1.000
    C230     C        0.67930    0.54350    0.67980    1.000
    H151     H        0.63500    0.56050    0.65970    1.000
    C231     C        0.23550    0.87870    0.97370    1.000
    C232     C        0.23550    0.93560    0.88750    1.000
    H152     H        0.21420    0.94250    0.84750    1.000
    C233     C        0.71450    0.39890    0.47640    1.000
    C234     C        0.02560    0.66500    0.99800    1.000
    H153     H        0.04280    0.66920    0.03810    1.000
    C235     C        0.20480    0.82760    0.00330    1.000
    C236     C        0.67970    0.49790    0.58620    1.000
    C237     C        0.71220    0.50820    0.65060    1.000
    C238     C        0.20390    0.89050    0.91380    1.000
    H154     H        0.16180    0.86800    0.89200    1.000
    C239     C        0.68610    0.39000    0.41720    1.000
    H155     H        0.64440    0.41280    0.39480    1.000
    C240     C        0.32520    0.95880    0.97330    1.000
    H156     H        0.36750    0.98130    0.99380    1.000
    C241     C        0.97310    0.64740    0.88280    1.000
    H157     H        0.95590    0.63950    0.84300    1.000
    C242     C        0.96720    0.62620    0.96770    1.000
    H158     H        0.94500    0.60390    0.98810    1.000
    C243     C        0.80610    0.49520    0.74100    1.000
    H159     H        0.85030    0.47840    0.76190    1.000
    C244     C        0.80660    0.31940    0.47810    1.000
    H160     H        0.84770    0.29440    0.49920    1.000
    C245     C        0.50220    0.57200    0.40570    1.000
    H161     H        0.51990    0.54230    0.38460    1.000
    C246     C        0.77790    0.48390    0.68200    1.000
    H162     H        0.80230    0.46050    0.66390    1.000
    C247     C        0.44430    0.61650    0.37820    1.000
    H163     H        0.42540    0.61920    0.33800    1.000
    C248     C        0.71180    0.55380    0.73880    1.000
    H164     H        0.68910    0.57920    0.75770    1.000
    C249     C        0.24500    0.70560    0.23560    1.000
    H165     H        0.22570    0.67110    0.25300    1.000
    C250     C        0.30210    0.80100    0.18320    1.000
    H166     H        0.32460    0.83210    0.16670    1.000
    C251     C        0.21460    0.71290    0.17650    1.000
    H167     H        0.17570    0.68420    0.15470    1.000
    C252     C        0.32740    0.79080    0.24250    1.000
    H168     H        0.36660    0.81840    0.26530    1.000
    N73      N        0.29550    0.97000    0.91660    1.000
    N74      N        0.93940    0.61770    0.91070    1.000
    N75      N        0.30050    0.74530    0.26930    1.000
    N76      N        0.23750    0.82300    0.06130    1.000
    N77      N        0.14780    0.78970    0.97110    1.000
    N78      N        0.15250    0.73360    0.05780    1.000
    N79      N        0.41340    0.65610    0.40580    1.000
    N80      N        0.77530    0.52820    0.77010    1.000
    N81      N        0.77960    0.31270    0.42070    1.000
    N82      N        0.62540    0.48720    0.47160    1.000
    N83      N        0.62260    0.53690    0.55730    1.000
    N84      N        0.71110    0.45050    0.56340    1.000
    Ag15     Ag       0.84423    0.54307    0.86706    1.000
    Ag16     Ag       0.82195    0.24442    0.36659    1.000
    C253     C        0.09760    0.02900    0.49930    1.000
    C254     C        0.27710    0.86180    0.50850    1.000
    H169     H        0.29800    0.86540    0.54860    1.000
    C255     C        0.79740    0.41580    0.00400    1.000
    H170     H        0.81960    0.41160    0.04400    1.000
    C256     C        0.62330    0.24350    0.00070    1.000
    C257     C        0.00340    0.11520    0.49480    1.000
    H171     H        0.02290    0.11650    0.53500    1.000
    C258     C        0.53280    0.18970    0.90960    1.000
    H172     H        0.55400    0.21140    0.88820    1.000
    C259     C        0.55960    0.19860    0.96820    1.000
    C260     C        0.18160    0.94760    0.50560    1.000
    C261     C        0.70940    0.27400    0.08600    1.000
    C262     C        0.94420    0.15560    0.46320    1.000
    H173     H        0.92460    0.18420    0.48340    1.000
    C263     C        0.03330    0.07280    0.46540    1.000
    C264     C        0.74260    0.26340    0.14970    1.000
    C265     C        0.21990    0.84680    0.39070    1.000
    H174     H        0.20000    0.84170    0.35070    1.000
    C266     C        0.17930    0.04350    0.67980    1.000
    H175     H        0.13500    0.06050    0.65970    1.000
    C267     C        0.73550    0.37870    0.97370    1.000
    C268     C        0.73550    0.43560    0.88750    1.000
    H176     H        0.71420    0.44250    0.84750    1.000
    C269     C        0.21450    0.89890    0.47640    1.000
    C270     C        0.52560    0.16500    0.99800    1.000
    H177     H        0.54280    0.16920    0.03810    1.000
    C271     C        0.70480    0.32760    0.00330    1.000
    C272     C        0.17970    0.99790    0.58620    1.000
    C273     C        0.21220    0.00820    0.65060    1.000
    C274     C        0.70390    0.39050    0.91380    1.000
    H178     H        0.66180    0.36800    0.89200    1.000
    C275     C        0.18610    0.89000    0.41720    1.000
    H179     H        0.14440    0.91280    0.39480    1.000
    C276     C        0.82520    0.45880    0.97330    1.000
    H180     H        0.86750    0.48130    0.99380    1.000
    C277     C        0.47310    0.14740    0.88280    1.000
    H181     H        0.45590    0.13950    0.84300    1.000
    C278     C        0.46720    0.12620    0.96770    1.000
    H182     H        0.44500    0.10390    0.98810    1.000
    C279     C        0.30610    0.99520    0.74100    1.000
    H183     H        0.35030    0.97840    0.76190    1.000
    C280     C        0.30660    0.81940    0.47810    1.000
    H184     H        0.34770    0.79440    0.49920    1.000
    C281     C        0.00220    0.07200    0.40570    1.000
    H185     H        0.01990    0.04230    0.38460    1.000
    C282     C        0.27790    0.98390    0.68200    1.000
    H186     H        0.30230    0.96050    0.66390    1.000
    C283     C        0.94430    0.11650    0.37820    1.000
    H187     H        0.92540    0.11920    0.33800    1.000
    C284     C        0.21180    0.05380    0.73880    1.000
    H188     H        0.18910    0.07920    0.75770    1.000
    C285     C        0.74500    0.20560    0.23560    1.000
    H189     H        0.72570    0.17110    0.25300    1.000
    C286     C        0.80210    0.30100    0.18320    1.000
    H190     H        0.82460    0.33210    0.16670    1.000
    C287     C        0.71460    0.21290    0.17650    1.000
    H191     H        0.67570    0.18420    0.15470    1.000
    C288     C        0.82740    0.29080    0.24250    1.000
    H192     H        0.86660    0.31840    0.26530    1.000
    N85      N        0.79550    0.47000    0.91660    1.000
    N86      N        0.43940    0.11770    0.91070    1.000
    N87      N        0.80050    0.24530    0.26930    1.000
    N88      N        0.73750    0.32300    0.06130    1.000
    N89      N        0.64780    0.28970    0.97110    1.000
    N90      N        0.65250    0.23360    0.05780    1.000
    N91      N        0.91340    0.15610    0.40580    1.000
    N92      N        0.27530    0.02820    0.77010    1.000
    N93      N        0.27960    0.81270    0.42070    1.000
    N94      N        0.12540    0.98720    0.47160    1.000
    N95      N        0.12260    0.03690    0.55730    1.000
    N96      N        0.21110    0.95050    0.56340    1.000
