# CIF file generated by openbabel 3.1.0, see https://openbabel.org
data_I
_chemical_name_common 'TAPHOJ_clean'
_cell_length_a 9.8561
_cell_length_b 11.9538
_cell_length_c 22.8463
_cell_angle_alpha 90
_cell_angle_beta 95.506
_cell_angle_gamma 90
_space_group_name_H-M_alt 'P 1'
_space_group_name_Hall 'P 1'
loop_
    _symmetry_equiv_pos_as_xyz
    x,y,z
loop_
    _atom_site_label
    _atom_site_type_symbol
    _atom_site_fract_x
    _atom_site_fract_y
    _atom_site_fract_z
    _atom_site_occupancy
    Zn1      Zn       0.73465    0.21990    0.96334    1.000
    Zn2      Zn       0.23465    0.28010    0.46335    1.000
    H1       H        0.40600    0.54800    0.74260    1.000
    H2       H        0.57660    0.98870    0.78550    1.000
    H3       H        0.59130    0.14320    0.84650    1.000
    H4       H        0.87080    0.99700    0.95530    1.000
    H5       H        0.86280    0.83800    0.89710    1.000
    H6       H        0.74990    0.72840    0.81910    1.000
    H7       H        0.77680    0.80650    0.76460    1.000
    H8       H        0.64800    0.72800    0.68960    1.000
    H9       H        0.63600    0.62190    0.73160    1.000
    H10      H        0.40750    0.73580    0.67250    1.000
    H11      H        0.46340    0.61710    0.65240    1.000
    H12      H        0.54450    0.64470    0.82540    1.000
    H13      H        0.48840    0.76450    0.84330    1.000
    H14      H        0.30710    0.75180    0.76840    1.000
    H15      H        0.30480    0.64420    0.81020    1.000
    H16      H        0.18650    0.52790    0.73170    1.000
    H17      H        0.17500    0.64020    0.69350    1.000
    H18      H        0.11430    0.60910    0.59490    1.000
    H19      H        0.12160    0.50480    0.50950    1.000
    H20      H        0.35740    0.37660    0.68040    1.000
    H21      H        0.43180    0.48340    0.08030    1.000
    H22      H        0.28440    0.23490    0.97110    1.000
    H23      H        0.02480    0.42980    0.05310    1.000
    H24      H        0.35480    0.27850    0.59320    1.000
    H25      H        0.90600    0.95200    0.24260    1.000
    H26      H        0.07660    0.51130    0.28550    1.000
    H27      H        0.09130    0.35680    0.34650    1.000
    H28      H        0.37080    0.50300    0.45530    1.000
    H29      H        0.36280    0.66200    0.39710    1.000
    H30      H        0.24990    0.77160    0.31910    1.000
    H31      H        0.27680    0.69350    0.26460    1.000
    H32      H        0.14800    0.77200    0.18960    1.000
    H33      H        0.13600    0.87810    0.23160    1.000
    H34      H        0.90750    0.76420    0.17250    1.000
    H35      H        0.96340    0.88290    0.15240    1.000
    H36      H        0.04450    0.85530    0.32540    1.000
    H37      H        0.98840    0.73550    0.34330    1.000
    H38      H        0.80710    0.74820    0.26840    1.000
    H39      H        0.80480    0.85580    0.31020    1.000
    H40      H        0.68650    0.97210    0.23170    1.000
    H41      H        0.67500    0.85980    0.19350    1.000
    H42      H        0.61430    0.89090    0.09490    1.000
    H43      H        0.62160    0.99520    0.00950    1.000
    H44      H        0.85740    0.12340    0.18040    1.000
    H45      H        0.93180    0.01660    0.58030    1.000
    H46      H        0.78440    0.26510    0.47110    1.000
    H47      H        0.52480    0.07020    0.55310    1.000
    H48      H        0.85480    0.22150    0.09320    1.000
    C1       C        0.63740    0.98790    0.82040    1.000
    C2       C        0.64670    0.08000    0.85711    1.000
    C3       C        0.80950    0.99500    0.92059    1.000
    C4       C        0.80530    0.89980    0.88591    1.000
    C5       C        0.71690    0.89460    0.83463    1.000
    C6       C        0.71480    0.79360    0.79555    1.000
    C7       C        0.59080    0.69220    0.71761    1.000
    C8       C        0.45330    0.66590    0.68677    1.000
    C9       C        0.49760    0.71330    0.80985    1.000
    C10      C        0.35700    0.68290    0.78128    1.000
    C11      C        0.23120    0.57260    0.70257    1.000
    C12      C        0.23590    0.50480    0.64728    1.000
    C13      C        0.16520    0.54150    0.59565    1.000
    C14      C        0.16970    0.47820    0.54479    1.000
    C15      C        0.30770    0.40470    0.64586    1.000
    C16      C        0.22480    0.46830    0.07258    1.000
    C17      C        0.35720    0.44240    0.06169    1.000
    C18      C        0.37960    0.35530    0.02294    1.000
    C19      C        0.52390    0.32580    0.01226    1.000
    C20      C        0.26920    0.29500    0.99684    1.000
    C21      C        0.13740    0.32170    0.00802    1.000
    C22      C        0.01690    0.25320    0.98250    1.000
    C23      C        0.11500    0.41000    0.04582    1.000
    C24      C        0.30570    0.34680    0.59359    1.000
    C25      C        0.13740    0.51210    0.32040    1.000
    C26      C        0.14670    0.42000    0.35711    1.000
    C27      C        0.30950    0.50500    0.42059    1.000
    C28      C        0.30530    0.60020    0.38591    1.000
    C29      C        0.21690    0.60540    0.33463    1.000
    C30      C        0.21480    0.70640    0.29555    1.000
    C31      C        0.09080    0.80780    0.21761    1.000
    C32      C        0.95330    0.83410    0.18677    1.000
    C33      C        0.99760    0.78670    0.30985    1.000
    C34      C        0.85700    0.81710    0.28128    1.000
    C35      C        0.73120    0.92740    0.20257    1.000
    C36      C        0.73590    0.99520    0.14728    1.000
    C37      C        0.66520    0.95850    0.09565    1.000
    C38      C        0.66970    0.02180    0.04479    1.000
    C39      C        0.80770    0.09530    0.14586    1.000
    C40      C        0.72480    0.03170    0.57258    1.000
    C41      C        0.85720    0.05760    0.56169    1.000
    C42      C        0.87960    0.14470    0.52294    1.000
    C43      C        0.02390    0.17420    0.51226    1.000
    C44      C        0.76920    0.20500    0.49684    1.000
    C45      C        0.63740    0.17830    0.50802    1.000
    C46      C        0.51690    0.24680    0.48250    1.000
    C47      C        0.61500    0.09000    0.54582    1.000
    C48      C        0.80570    0.15320    0.09359    1.000
    S1       S        0.19425    0.56961    0.12673    1.000
    S2       S        0.69425    0.93039    0.62673    1.000
    N1       N        0.73010    0.08460    0.90700    1.000
    N2       N        0.57920    0.76710    0.76770    1.000
    N3       N        0.36940    0.60780    0.72907    1.000
    N4       N        0.23740    0.38260    0.54293    1.000
    N5       N        0.23010    0.41540    0.40700    1.000
    N6       N        0.07920    0.73290    0.26770    1.000
    N7       N        0.86940    0.89220    0.22907    1.000
    N8       N        0.73740    0.11740    0.04293    1.000
    O1       O        0.90140    0.29328    0.99319    1.000
    O2       O        0.03650    0.16595    0.95603    1.000
    O3       O        0.53840    0.26113    0.96791    1.000
    O4       O        0.62020    0.36281    0.04492    1.000
    O5       O        0.27890    0.66721    0.11618    1.000
    O6       O        0.04950    0.59198    0.12091    1.000
    O7       O        0.24070    0.51665    0.18281    1.000
    O8       O        0.40140    0.20672    0.49319    1.000
    O9       O        0.53650    0.33405    0.45603    1.000
    O10      O        0.03840    0.23887    0.46791    1.000
    O11      O        0.12020    0.13719    0.54492    1.000
    O12      O        0.77890    0.83279    0.61618    1.000
    O13      O        0.54950    0.90802    0.62091    1.000
    O14      O        0.74070    0.98335    0.68281    1.000
    Zn3      Zn       0.76535    0.71990    0.53666    1.000
    Zn4      Zn       0.26535    0.78010    0.03666    1.000
    H49      H        0.09400    0.04800    0.75740    1.000
    H50      H        0.92340    0.48870    0.71450    1.000
    H51      H        0.90870    0.64320    0.65350    1.000
    H52      H        0.62920    0.49700    0.54470    1.000
    H53      H        0.63720    0.33800    0.60290    1.000
    H54      H        0.75010    0.22840    0.68090    1.000
    H55      H        0.72320    0.30650    0.73540    1.000
    H56      H        0.85200    0.22800    0.81040    1.000
    H57      H        0.86400    0.12190    0.76840    1.000
    H58      H        0.09250    0.23580    0.82750    1.000
    H59      H        0.03660    0.11710    0.84760    1.000
    H60      H        0.95550    0.14470    0.67460    1.000
    H61      H        0.01160    0.26450    0.65670    1.000
    H62      H        0.19290    0.25180    0.73160    1.000
    H63      H        0.19520    0.14420    0.68980    1.000
    H64      H        0.31350    0.02790    0.76830    1.000
    H65      H        0.32500    0.14020    0.80650    1.000
    H66      H        0.38570    0.10910    0.90510    1.000
    H67      H        0.37840    0.00480    0.99050    1.000
    H68      H        0.14260    0.87660    0.81960    1.000
    H69      H        0.06820    0.98340    0.41970    1.000
    H70      H        0.21560    0.73490    0.52890    1.000
    H71      H        0.47520    0.92980    0.44690    1.000
    H72      H        0.14520    0.77850    0.90680    1.000
    H73      H        0.59400    0.45200    0.25740    1.000
    H74      H        0.42340    0.01130    0.21450    1.000
    H75      H        0.40870    0.85680    0.15350    1.000
    H76      H        0.12920    0.00300    0.04470    1.000
    H77      H        0.13720    0.16200    0.10290    1.000
    H78      H        0.25010    0.27160    0.18090    1.000
    H79      H        0.22320    0.19350    0.23540    1.000
    H80      H        0.35200    0.27200    0.31040    1.000
    H81      H        0.36400    0.37810    0.26840    1.000
    H82      H        0.59250    0.26420    0.32750    1.000
    H83      H        0.53660    0.38290    0.34760    1.000
    H84      H        0.45550    0.35530    0.17460    1.000
    H85      H        0.51160    0.23550    0.15670    1.000
    H86      H        0.69290    0.24820    0.23160    1.000
    H87      H        0.69520    0.35580    0.18980    1.000
    H88      H        0.81350    0.47210    0.26830    1.000
    H89      H        0.82500    0.35980    0.30650    1.000
    H90      H        0.88570    0.39090    0.40510    1.000
    H91      H        0.87840    0.49520    0.49050    1.000
    H92      H        0.64260    0.62340    0.31960    1.000
    H93      H        0.56820    0.51660    0.91970    1.000
    H94      H        0.71560    0.76510    0.02890    1.000
    H95      H        0.97520    0.57020    0.94690    1.000
    H96      H        0.64520    0.72150    0.40680    1.000
    C49      C        0.86260    0.48790    0.67960    1.000
    C50      C        0.85330    0.58000    0.64289    1.000
    C51      C        0.69050    0.49500    0.57941    1.000
    C52      C        0.69470    0.39980    0.61409    1.000
    C53      C        0.78310    0.39460    0.66537    1.000
    C54      C        0.78520    0.29360    0.70445    1.000
    C55      C        0.90920    0.19220    0.78239    1.000
    C56      C        0.04670    0.16590    0.81323    1.000
    C57      C        0.00240    0.21330    0.69015    1.000
    C58      C        0.14300    0.18290    0.71872    1.000
    C59      C        0.26880    0.07260    0.79743    1.000
    C60      C        0.26410    0.00480    0.85272    1.000
    C61      C        0.33480    0.04150    0.90435    1.000
    C62      C        0.33030    0.97820    0.95521    1.000
    C63      C        0.19230    0.90470    0.85414    1.000
    C64      C        0.27520    0.96830    0.42742    1.000
    C65      C        0.14280    0.94240    0.43831    1.000
    C66      C        0.12040    0.85530    0.47706    1.000
    C67      C        0.97610    0.82580    0.48774    1.000
    C68      C        0.23080    0.79500    0.50316    1.000
    C69      C        0.36260    0.82170    0.49198    1.000
    C70      C        0.48310    0.75320    0.51750    1.000
    C71      C        0.38500    0.91000    0.45418    1.000
    C72      C        0.19430    0.84680    0.90641    1.000
    C73      C        0.36260    0.01210    0.17960    1.000
    C74      C        0.35330    0.92000    0.14289    1.000
    C75      C        0.19050    0.00500    0.07941    1.000
    C76      C        0.19470    0.10020    0.11409    1.000
    C77      C        0.28310    0.10540    0.16537    1.000
    C78      C        0.28520    0.20640    0.20445    1.000
    C79      C        0.40920    0.30780    0.28239    1.000
    C80      C        0.54670    0.33410    0.31323    1.000
    C81      C        0.50240    0.28670    0.19015    1.000
    C82      C        0.64300    0.31710    0.21872    1.000
    C83      C        0.76880    0.42740    0.29743    1.000
    C84      C        0.76410    0.49520    0.35272    1.000
    C85      C        0.83480    0.45850    0.40435    1.000
    C86      C        0.83030    0.52180    0.45521    1.000
    C87      C        0.69230    0.59530    0.35414    1.000
    C88      C        0.77520    0.53170    0.92742    1.000
    C89      C        0.64280    0.55760    0.93831    1.000
    C90      C        0.62040    0.64470    0.97706    1.000
    C91      C        0.47610    0.67420    0.98774    1.000
    C92      C        0.73080    0.70500    0.00316    1.000
    C93      C        0.86260    0.67830    0.99198    1.000
    C94      C        0.98310    0.74680    0.01750    1.000
    C95      C        0.88500    0.59000    0.95418    1.000
    C96      C        0.69430    0.65320    0.40641    1.000
    S3       S        0.30575    0.06961    0.37327    1.000
    S4       S        0.80575    0.43039    0.87327    1.000
    N9       N        0.76990    0.58460    0.59300    1.000
    N10      N        0.92080    0.26710    0.73230    1.000
    N11      N        0.13060    0.10780    0.77093    1.000
    N12      N        0.26260    0.88260    0.95707    1.000
    N13      N        0.26990    0.91540    0.09300    1.000
    N14      N        0.42080    0.23290    0.23230    1.000
    N15      N        0.63060    0.39220    0.27093    1.000
    N16      N        0.76260    0.61740    0.45707    1.000
    O15      O        0.59860    0.79328    0.50681    1.000
    O16      O        0.46350    0.66595    0.54397    1.000
    O17      O        0.96160    0.76113    0.53209    1.000
    O18      O        0.87980    0.86281    0.45508    1.000
    O19      O        0.22110    0.16721    0.38382    1.000
    O20      O        0.45050    0.09198    0.37909    1.000
    O21      O        0.25930    0.01665    0.31719    1.000
    O22      O        0.09860    0.70672    0.00681    1.000
    O23      O        0.96350    0.83405    0.04397    1.000
    O24      O        0.46160    0.73887    0.03209    1.000
    O25      O        0.37980    0.63719    0.95508    1.000
    O26      O        0.72110    0.33279    0.88382    1.000
    O27      O        0.95050    0.40802    0.87909    1.000
    O28      O        0.75930    0.48335    0.81719    1.000
