# CIF file generated by openbabel 3.1.0, see https://openbabel.org
data_I
_chemical_name_common 'CESYEF_clean'
_cell_length_a 3.6934
_cell_length_b 12.1783
_cell_length_c 15.239
_cell_angle_alpha 90
_cell_angle_beta 90.1
_cell_angle_gamma 90
_space_group_name_H-M_alt 'P 1'
_space_group_name_Hall 'P 1'
loop_
    _symmetry_equiv_pos_as_xyz
    x,y,z
loop_
    _atom_site_label
    _atom_site_type_symbol
    _atom_site_fract_x
    _atom_site_fract_y
    _atom_site_fract_z
    _atom_site_occupancy
    Ag1      Ag       0.60960    0.57542    0.42476    1.000
    Ag2      Ag       0.39040    0.07542    0.07524    1.000
    Ag3      Ag       0.39040    0.42458    0.57524    1.000
    Ag4      Ag       0.60960    0.92458    0.92476    1.000
    H1       H        0.42720    0.55060    0.22210    1.000
    H2       H        0.18630    0.63910    0.10350    1.000
    H3       H        0.06240    0.90410    0.25350    1.000
    H4       H        0.29470    0.80640    0.36930    1.000
    H5       H        0.57280    0.05060    0.27790    1.000
    H6       H        0.81370    0.13910    0.39650    1.000
    H7       H        0.93760    0.40410    0.24650    1.000
    H8       H        0.70530    0.30640    0.13070    1.000
    H9       H        0.57280    0.44940    0.77790    1.000
    H10      H        0.81370    0.36090    0.89650    1.000
    H11      H        0.93760    0.09590    0.74650    1.000
    H12      H        0.70530    0.19360    0.63070    1.000
    H13      H        0.42720    0.94940    0.72210    1.000
    H14      H        0.18630    0.86090    0.60350    1.000
    H15      H        0.06240    0.59590    0.75350    1.000
    H16      H        0.29470    0.69360    0.86930    1.000
    C1       C        0.35100    0.62290    0.22880    1.000
    C2       C        0.20710    0.67540    0.15700    1.000
    C3       C        0.09400    0.78250    0.16540    1.000
    C4       C        0.13300    0.83140    0.24560    1.000
    C5       C        0.27600    0.77230    0.31490    1.000
    C6       C        0.92700    0.84270    0.09000    1.000
    C7       C        0.64900    0.12290    0.27120    1.000
    C8       C        0.79290    0.17540    0.34300    1.000
    C9       C        0.90600    0.28250    0.33460    1.000
    C10      C        0.86700    0.33140    0.25440    1.000
    C11      C        0.72400    0.27230    0.18510    1.000
    C12      C        0.07300    0.34270    0.41000    1.000
    C13      C        0.64900    0.37710    0.77120    1.000
    C14      C        0.79290    0.32460    0.84300    1.000
    C15      C        0.90600    0.21750    0.83460    1.000
    C16      C        0.86700    0.16860    0.75440    1.000
    C17      C        0.72400    0.22770    0.68510    1.000
    C18      C        0.07300    0.15730    0.91000    1.000
    C19      C        0.35100    0.87710    0.72880    1.000
    C20      C        0.20710    0.82460    0.65700    1.000
    C21      C        0.09400    0.71750    0.66540    1.000
    C22      C        0.13300    0.66860    0.74560    1.000
    C23      C        0.27600    0.72770    0.81490    1.000
    C24      C        0.92700    0.65730    0.59000    1.000
    N1       N        0.38880    0.66910    0.30730    1.000
    N2       N        0.61120    0.16910    0.19270    1.000
    N3       N        0.61120    0.33090    0.69270    1.000
    N4       N        0.38880    0.83090    0.80730    1.000
    O1       O        0.87920    0.94490    0.10090    1.000
    O2       O        0.84700    0.79040    0.02300    1.000
    O3       O        0.12080    0.44490    0.39910    1.000
    O4       O        0.15300    0.29040    0.47700    1.000
    O5       O        0.12080    0.05510    0.89910    1.000
    O6       O        0.15300    0.20960    0.97700    1.000
    O7       O        0.87920    0.55510    0.60090    1.000
    O8       O        0.84700    0.70960    0.52300    1.000
