# CIF file generated by openbabel 3.1.0, see https://openbabel.org
data_I
_chemical_name_common 'image0'
_cell_length_a 9.465
_cell_length_b 12.581
_cell_length_c 18.98
_cell_angle_alpha 90
_cell_angle_beta 93.548
_cell_angle_gamma 90
_space_group_name_H-M_alt 'P 1'
_space_group_name_Hall 'P 1'
loop_
    _symmetry_equiv_pos_as_xyz
    x,y,z
loop_
    _atom_site_label
    _atom_site_type_symbol
    _atom_site_fract_x
    _atom_site_fract_y
    _atom_site_fract_z
    _atom_site_occupancy
    Co1      Co       0.24936    0.85299    0.24112    1.000
    Co2      Co       0.06249    0.82072    0.06914    1.000
    N1       N        0.25140    0.87380    0.35159    1.000
    N2       N        0.27710    0.68750    0.38940    1.000
    N3       N        0.36680    0.71220    0.50170    1.000
    N4       N        0.37080    0.94300    0.56220    1.000
    N5       N        0.30180    0.99550    0.44730    1.000
    O1       O        0.09310    0.97010    0.22607    1.000
    O2       O        0.98220    0.95530    0.11787    1.000
    O3       O        0.40380    0.97260    0.24161    1.000
    O4       O        0.43390    0.99830    0.12696    1.000
    O5       O        0.08570    0.23870    0.23875    1.000
    O6       O        0.06250    0.17470    0.34746    1.000
    O7       O        0.40310    0.23190    0.24545    1.000
    O8       O        0.51000    0.22130    0.35355    1.000
    C1       C        0.28320    0.79660    0.39950    1.000
    C2       C        0.32680    0.64250    0.45100    1.000
    H1       H        0.33260    0.56930    0.45750    1.000
    C3       C        0.33370    0.81140    0.46860    1.000
    C4       C        0.33770    0.91720    0.49480    1.000
    C5       C        0.26520    0.97060    0.38020    1.000
    H2       H        0.24700    0.02750    0.34970    1.000
    C6       C        0.99310    0.98850    0.18180    1.000
    C7       C        0.86870    0.05070    0.20710    1.000
    C8       C        0.73350    0.01630    0.18480    1.000
    H3       H        0.72360    0.96280    0.15110    1.000
    C9       C        0.61130    0.06030    0.21180    1.000
    C10      C        0.47160    0.00800    0.19120    1.000
    C11      C        0.76190    0.17790    0.28320    1.000
    H4       H        0.77150    0.23220    0.31640    1.000
    C12      C        0.88400    0.13300    0.25700    1.000
    C13      C        0.02400    0.18380    0.28360    1.000
    C14      C        0.62700    0.14330    0.26070    1.000
    C15      C        0.50120    0.20170    0.28870    1.000
    O9       O        0.26160    0.83540    0.12923    1.000
    H5       H        0.25450    0.65620    0.35020    1.000
    H6       H        0.39610    0.01430    0.57440    1.000
    H7       H        0.40540    0.87230    0.59600    1.000
    H8       H        0.30730    0.78030    0.12910    1.000
    H9       H        0.31430    0.88700    0.12440    1.000
    Co3      Co       0.25064    0.35299    0.25888    1.000
    Co4      Co       0.43751    0.32072    0.43086    1.000
    N6       N        0.24860    0.37380    0.14841    1.000
    N7       N        0.22290    0.18750    0.11060    1.000
    N8       N        0.13320    0.21220    0.99830    1.000
    N9       N        0.12920    0.44300    0.93780    1.000
    N10      N        0.19820    0.49550    0.05270    1.000
    O10      O        0.40690    0.47010    0.27393    1.000
    O11      O        0.51780    0.45530    0.38213    1.000
    O12      O        0.09620    0.47260    0.25839    1.000
    O13      O        0.06610    0.49830    0.37304    1.000
    O14      O        0.41430    0.73870    0.26125    1.000
    O15      O        0.43750    0.67470    0.15254    1.000
    O16      O        0.09690    0.73190    0.25455    1.000
    O17      O        0.99000    0.72130    0.14645    1.000
    C16      C        0.21680    0.29660    0.10050    1.000
    C17      C        0.17320    0.14250    0.04900    1.000
    H10      H        0.16740    0.06930    0.04250    1.000
    C18      C        0.16630    0.31140    0.03140    1.000
    C19      C        0.16230    0.41720    0.00520    1.000
    C20      C        0.23480    0.47060    0.11980    1.000
    H11      H        0.25300    0.52750    0.15030    1.000
    C21      C        0.50690    0.48850    0.31820    1.000
    C22      C        0.63130    0.55070    0.29290    1.000
    C23      C        0.76650    0.51630    0.31520    1.000
    H12      H        0.77640    0.46280    0.34890    1.000
    C24      C        0.88870    0.56030    0.28820    1.000
    C25      C        0.02840    0.50800    0.30880    1.000
    C26      C        0.73810    0.67790    0.21680    1.000
    H13      H        0.72850    0.73220    0.18360    1.000
    C27      C        0.61600    0.63300    0.24300    1.000
    C28      C        0.47600    0.68380    0.21640    1.000
    C29      C        0.87300    0.64330    0.23930    1.000
    C30      C        0.99880    0.70170    0.21130    1.000
    O18      O        0.23840    0.33540    0.37077    1.000
    H14      H        0.24550    0.15620    0.14980    1.000
    H15      H        0.10390    0.51430    0.92560    1.000
    H16      H        0.09460    0.37230    0.90400    1.000
    H17      H        0.19270    0.28030    0.37090    1.000
    H18      H        0.18570    0.38700    0.37560    1.000
    Co5      Co       0.75064    0.14701    0.75888    1.000
    Co6      Co       0.93751    0.17928    0.93086    1.000
    N11      N        0.74860    0.12620    0.64841    1.000
    N12      N        0.72290    0.31250    0.61060    1.000
    N13      N        0.63320    0.28780    0.49830    1.000
    N14      N        0.62920    0.05700    0.43780    1.000
    N15      N        0.69820    0.00450    0.55270    1.000
    O19      O        0.90690    0.02990    0.77393    1.000
    O20      O        0.01780    0.04470    0.88213    1.000
    O21      O        0.59620    0.02740    0.75839    1.000
    O22      O        0.56610    0.00170    0.87304    1.000
    O23      O        0.91430    0.76130    0.76125    1.000
    O24      O        0.93750    0.82530    0.65254    1.000
    O25      O        0.59690    0.76810    0.75455    1.000
    O26      O        0.49000    0.77870    0.64645    1.000
    C31      C        0.71680    0.20340    0.60050    1.000
    C32      C        0.67320    0.35750    0.54900    1.000
    H19      H        0.66740    0.43070    0.54250    1.000
    C33      C        0.66630    0.18860    0.53140    1.000
    C34      C        0.66230    0.08280    0.50520    1.000
    C35      C        0.73480    0.02940    0.61980    1.000
    H20      H        0.75300    0.97250    0.65030    1.000
    C36      C        0.00690    0.01150    0.81820    1.000
    C37      C        0.13130    0.94930    0.79290    1.000
    C38      C        0.26650    0.98370    0.81520    1.000
    H21      H        0.27640    0.03720    0.84890    1.000
    C39      C        0.38870    0.93970    0.78820    1.000
    C40      C        0.52840    0.99200    0.80880    1.000
    C41      C        0.23810    0.82210    0.71680    1.000
    H22      H        0.22850    0.76780    0.68360    1.000
    C42      C        0.11600    0.86700    0.74300    1.000
    C43      C        0.97600    0.81620    0.71640    1.000
    C44      C        0.37300    0.85670    0.73930    1.000
    C45      C        0.49880    0.79830    0.71130    1.000
    O27      O        0.73840    0.16460    0.87077    1.000
    H23      H        0.74550    0.34380    0.64980    1.000
    H24      H        0.60390    0.98570    0.42560    1.000
    H25      H        0.59460    0.12770    0.40400    1.000
    H26      H        0.69270    0.21970    0.87090    1.000
    H27      H        0.68570    0.11300    0.87560    1.000
    Co7      Co       0.74936    0.64701    0.74112    1.000
    Co8      Co       0.56249    0.67928    0.56914    1.000
    N16      N        0.75140    0.62620    0.85159    1.000
    N17      N        0.77710    0.81250    0.88940    1.000
    N18      N        0.86680    0.78780    0.00170    1.000
    N19      N        0.87080    0.55700    0.06220    1.000
    N20      N        0.80180    0.50450    0.94730    1.000
    O28      O        0.59310    0.52990    0.72607    1.000
    O29      O        0.48220    0.54470    0.61787    1.000
    O30      O        0.90380    0.52740    0.74161    1.000
    O31      O        0.93390    0.50170    0.62696    1.000
    O32      O        0.58570    0.26130    0.73875    1.000
    O33      O        0.56250    0.32530    0.84746    1.000
    O34      O        0.90310    0.26810    0.74545    1.000
    O35      O        0.01000    0.27870    0.85355    1.000
    C46      C        0.78320    0.70340    0.89950    1.000
    C47      C        0.82680    0.85750    0.95100    1.000
    H28      H        0.83260    0.93070    0.95750    1.000
    C48      C        0.83370    0.68860    0.96860    1.000
    C49      C        0.83770    0.58280    0.99480    1.000
    C50      C        0.76520    0.52940    0.88020    1.000
    H29      H        0.74700    0.47250    0.84970    1.000
    C51      C        0.49310    0.51150    0.68180    1.000
    C52      C        0.36870    0.44930    0.70710    1.000
    C53      C        0.23350    0.48370    0.68480    1.000
    H30      H        0.22360    0.53720    0.65110    1.000
    C54      C        0.11130    0.43970    0.71180    1.000
    C55      C        0.97160    0.49200    0.69120    1.000
    C56      C        0.26190    0.32210    0.78320    1.000
    H31      H        0.27150    0.26780    0.81640    1.000
    C57      C        0.38400    0.36700    0.75700    1.000
    C58      C        0.52400    0.31620    0.78360    1.000
    C59      C        0.12700    0.35670    0.76070    1.000
    C60      C        0.00120    0.29830    0.78870    1.000
    O36      O        0.76160    0.66460    0.62923    1.000
    H32      H        0.75450    0.84380    0.85020    1.000
    H33      H        0.89610    0.48570    0.07440    1.000
    H34      H        0.90540    0.62770    0.09600    1.000
    H35      H        0.80730    0.71970    0.62910    1.000
    H36      H        0.81430    0.61300    0.62440    1.000
