# CIF file generated by openbabel 3.1.0, see https://openbabel.org
data_I
_chemical_name_common 'image0'
_cell_length_a 7.149
_cell_length_b 7.149
_cell_length_c 13.392
_cell_angle_alpha 90
_cell_angle_beta 90
_cell_angle_gamma 90
_space_group_name_H-M_alt 'P 1'
_space_group_name_Hall 'P 1'
loop_
    _symmetry_equiv_pos_as_xyz
    x,y,z
loop_
    _atom_site_label
    _atom_site_type_symbol
    _atom_site_fract_x
    _atom_site_fract_y
    _atom_site_fract_z
    _atom_site_occupancy
    Pt1      Pt       0.00000    0.00000    0.50000    1.000
    Fe1      Fe       0.50000    0.50000    0.50000    1.000
    N1       N        0.50000    0.50000    0.35030    1.000
    C1       C        0.50000    0.50000    0.14600    1.000
    N2       N        0.50000    0.50000    0.64970    1.000
    C2       C        0.50000    0.50000    0.85400    1.000
    N3       N        0.69040    0.69040    0.50000    1.000
    C3       C        0.80480    0.80480    0.50000    1.000
    N4       N        0.30960    0.30960    0.50000    1.000
    C4       C        0.19520    0.19520    0.50000    1.000
    N5       N        0.30960    0.69040    0.50000    1.000
    C5       C        0.19520    0.80480    0.50000    1.000
    N6       N        0.69040    0.30960    0.50000    1.000
    C6       C        0.80480    0.19520    0.50000    1.000
    C7       C        0.65700    0.50000    0.29900    1.000
    C8       C        0.65700    0.50000    0.19650    1.000
    C9       C        0.34300    0.50000    0.29900    1.000
    C10      C        0.34300    0.50000    0.19650    1.000
    C11      C        0.50000    0.65700    0.29900    1.000
    C12      C        0.50000    0.65700    0.19650    1.000
    C13      C        0.50000    0.34300    0.29900    1.000
    C14      C        0.50000    0.34300    0.19650    1.000
    C15      C        0.34300    0.50000    0.70100    1.000
    C16      C        0.34300    0.50000    0.80350    1.000
    C17      C        0.65700    0.50000    0.70100    1.000
    C18      C        0.65700    0.50000    0.80350    1.000
    C19      C        0.50000    0.65700    0.70100    1.000
    C20      C        0.50000    0.65700    0.80350    1.000
    C21      C        0.50000    0.34300    0.70100    1.000
    C22      C        0.50000    0.34300    0.80350    1.000
    C23      C        0.50000    0.43000    0.03200    1.000
    C24      C        0.50000    0.57000    0.03200    1.000
    C25      C        0.57000    0.50000    0.03200    1.000
    C26      C        0.43000    0.50000    0.03200    1.000
    C27      C        0.50000    0.43000    0.96800    1.000
    C28      C        0.50000    0.57000    0.96800    1.000
    C29      C        0.43000    0.50000    0.96800    1.000
    C30      C        0.57000    0.50000    0.96800    1.000
