# CIF file generated by openbabel 3.1.0, see https://openbabel.org
data_I
_chemical_name_common 'IGAHED_clean'
_cell_length_a 6.9575
_cell_length_b 7.4383
_cell_length_c 8.2578
_cell_angle_alpha 90.3665
_cell_angle_beta 109.803
_cell_angle_gamma 93.2398
_space_group_name_H-M_alt 'P 1'
_space_group_name_Hall 'P 1'
loop_
    _symmetry_equiv_pos_as_xyz
    x,y,z
loop_
    _atom_site_label
    _atom_site_type_symbol
    _atom_site_fract_x
    _atom_site_fract_y
    _atom_site_fract_z
    _atom_site_occupancy
    Co1      Co       0.49749    0.50050    0.00040    1.000
    Co2      Co       0.00000    0.00000    0.00000    1.000
    H1       H        0.41906    0.29548    0.54038    1.000
    H2       H        0.57101    0.70531    0.45781    1.000
    C1       C        0.45988    0.93370    0.33472    1.000
    C2       C        0.44993    0.17539    0.52409    1.000
    C3       C        0.41483    0.10799    0.35901    1.000
    C4       C        0.34895    0.24118    0.21653    1.000
    C5       C        0.41952    0.84379    0.15953    1.000
    C6       C        0.53228    0.06910    0.66758    1.000
    C7       C        0.57952    0.89091    0.64229    1.000
    C8       C        0.54174    0.82571    0.47511    1.000
    C9       C        0.64479    0.75922    0.78577    1.000
    C10      C        0.57194    0.15771    0.83946    1.000
    O1       O        0.50863    0.64285    0.78782    1.000
    O2       O        0.48222    0.36185    0.21458    1.000
    O3       O        0.44084    0.26165    0.85102    1.000
    O4       O        0.55281    0.74135    0.14938    1.000
    O5       O        0.73193    0.12825    0.96428    1.000
    O6       O        0.82647    0.76866    0.89049    1.000
    O7       O        0.16518    0.23344    0.11291    1.000
    O8       O        0.25763    0.86865    0.03902    1.000
