# CIF file generated by openbabel 3.1.0, see https://openbabel.org
data_I
_chemical_name_common 'image0'
_cell_length_a 15.337
_cell_length_b 32.832
_cell_length_c 10.1057
_cell_angle_alpha 90
_cell_angle_beta 106.549
_cell_angle_gamma 90
_space_group_name_H-M_alt 'P 1'
_space_group_name_Hall 'P 1'
loop_
    _symmetry_equiv_pos_as_xyz
    x,y,z
loop_
    _atom_site_label
    _atom_site_type_symbol
    _atom_site_fract_x
    _atom_site_fract_y
    _atom_site_fract_z
    _atom_site_occupancy
    Cu1      Cu       0.58029    0.21663    0.22464    1.000
    Cu2      Cu       0.50722    0.21726    0.48308    1.000
    Cu3      Cu       0.65408    0.27467    0.45990    1.000
    O1       O        0.61770    0.21803    0.42480    1.000
    H1       H        0.65770    0.20060    0.46390    1.000
    O2       O        0.53240    0.15784    0.23470    1.000
    O3       O        0.47200    0.16264    0.41410    1.000
    O4       O        0.70510    0.22832    0.21090    1.000
    O5       O        0.76260    0.26671    0.40010    1.000
    O6       O        0.54430    0.27519    0.52720    1.000
    H2       H        0.50420    0.29210    0.48440    1.000
    O7       O        0.04790    0.33450    0.46010    1.000
    O8       O        0.09830    0.33660    0.29410    1.000
    O9       O        0.00350    0.30480    0.99940    1.000
    O10      O        0.11900    0.34560    0.00490    1.000
    O11      O        0.27540    0.99600    0.39320    1.000
    O12      O        0.27580    0.05180    0.47280    1.000
    O13      O        0.29420    0.01869    0.00530    1.000
    O14      O        0.29480    0.97000    0.87190    1.000
    O15      O        0.40180    0.27874    0.04870    1.000
    O16      O        0.45430    0.23979    0.23540    1.000
    O17      O        0.40110    0.81982    0.27010    1.000
    O18      O        0.33600    0.83249    0.04630    1.000
    C1       C        0.49230    0.14391    0.31790    1.000
    C2       C        0.46550    0.09983    0.29930    1.000
    C3       C        0.51130    0.07360    0.23810    1.000
    H3       H        0.55850    0.08330    0.20610    1.000
    C4       C        0.48820    0.03250    0.22270    1.000
    H4       H        0.52260    0.01490    0.18590    1.000
    C5       C        0.41370    0.01730    0.26190    1.000
    C6       C        0.36980    0.04470    0.32520    1.000
    C7       C        0.39510    0.08483    0.34670    1.000
    H5       H        0.36520    0.10190    0.39280    1.000
    C8       C        0.39320    0.97310    0.24000    1.000
    C9       C        0.35150    0.95660    0.11320    1.000
    C10      C        0.34210    0.91490    0.08830    1.000
    H6       H        0.31270    0.90500    0.00070    1.000
    C11      C        0.37740    0.88869    0.19630    1.000
    C12      C        0.42120    0.90470    0.32420    1.000
    H7       H        0.44620    0.88730    0.39760    1.000
    C13      C        0.42850    0.94580    0.34460    1.000
    H8       H        0.45840    0.95560    0.43210    1.000
    C14      C        0.37240    0.84328    0.17370    1.000
    C15      C        0.76940    0.24775    0.29660    1.000
    C16      C        0.85920    0.24832    0.26890    1.000
    C17      C        0.91730    0.28050    0.32230    1.000
    H9       H        0.89980    0.30070    0.37400    1.000
    C18      C        0.00110    0.28230    0.29790    1.000
    C19      C        0.03050    0.25210    0.22030    1.000
    C20      C        0.97280    0.21940    0.17540    1.000
    H10      H        0.99190    0.19800    0.13010    1.000
    C21      C        0.88730    0.21770    0.19600    1.000
    H11      H        0.84880    0.19600    0.16080    1.000
    C22      C        0.12100    0.25340    0.19030    1.000
    C23      C        0.18470    0.22300    0.24660    1.000
    H12      H        0.16760    0.20150    0.29360    1.000
    C24      C        0.27160    0.22400    0.23480    1.000
    H13      H        0.31290    0.20380    0.27640    1.000
    C25      C        0.29810    0.25510    0.16060    1.000
    C26      C        0.23410    0.28430    0.09790    1.000
    H14      H        0.25010    0.30500    0.04630    1.000
    C27      C        0.14730    0.28298    0.11120    1.000
    C28      C        0.39360    0.25803    0.14930    1.000
    N1       N        0.31250    0.02910    0.40970    1.000
    N2       N        0.06160    0.31570    0.36330    1.000
    N3       N        0.08380    0.31499    0.03620    1.000
    N4       N        0.31110    0.98303    0.98970    1.000
    O19      O        0.02550    0.34570    0.39570    1.000
    O20      O        0.14280    0.30690    0.40120    1.000
    O21      O        0.00520    0.31450    0.04100    1.000
    O22      O        0.10550    0.33670    0.95260    1.000
    O23      O        0.24250    0.00240    0.30210    1.000
    O24      O        0.22470    0.05950    0.36310    1.000
    O25      O        0.26510    0.00970    0.02210    1.000
    O26      O        0.33850    0.97360    0.89130    1.000
    N5       N        0.27890    0.03470    0.34340    1.000
    Cu4      Cu       0.41971    0.71663    0.27536    1.000
    Cu5      Cu       0.49278    0.71726    0.01692    1.000
    Cu6      Cu       0.34592    0.77467    0.04010    1.000
    O27      O        0.38230    0.71803    0.07520    1.000
    H15      H        0.34230    0.70060    0.03610    1.000
    O28      O        0.46760    0.65784    0.26530    1.000
    O29      O        0.52800    0.66264    0.08590    1.000
    O30      O        0.29490    0.72832    0.28910    1.000
    O31      O        0.23740    0.76671    0.09990    1.000
    O32      O        0.45570    0.77519    0.97280    1.000
    H16      H        0.49580    0.79210    0.01560    1.000
    O33      O        0.95210    0.83450    0.03990    1.000
    O34      O        0.90170    0.83660    0.20590    1.000
    O35      O        0.99650    0.80480    0.50060    1.000
    O36      O        0.88100    0.84560    0.49510    1.000
    O37      O        0.72460    0.49600    0.10680    1.000
    O38      O        0.72420    0.55180    0.02720    1.000
    O39      O        0.70580    0.51869    0.49470    1.000
    O40      O        0.70520    0.47000    0.62810    1.000
    O41      O        0.59820    0.77874    0.45130    1.000
    O42      O        0.54570    0.73979    0.26460    1.000
    O43      O        0.59890    0.31982    0.22990    1.000
    O44      O        0.66400    0.33249    0.45370    1.000
    C29      C        0.50770    0.64391    0.18210    1.000
    C30      C        0.53450    0.59983    0.20070    1.000
    C31      C        0.48870    0.57360    0.26190    1.000
    H17      H        0.44150    0.58330    0.29390    1.000
    C32      C        0.51180    0.53250    0.27730    1.000
    H18      H        0.47740    0.51490    0.31410    1.000
    C33      C        0.58630    0.51730    0.23810    1.000
    C34      C        0.63020    0.54470    0.17480    1.000
    C35      C        0.60490    0.58483    0.15330    1.000
    H19      H        0.63480    0.60190    0.10720    1.000
    C36      C        0.60680    0.47310    0.26000    1.000
    C37      C        0.64850    0.45660    0.38680    1.000
    C38      C        0.65790    0.41490    0.41170    1.000
    H20      H        0.68730    0.40500    0.49930    1.000
    C39      C        0.62260    0.38869    0.30370    1.000
    C40      C        0.57880    0.40470    0.17580    1.000
    H21      H        0.55380    0.38730    0.10240    1.000
    C41      C        0.57150    0.44580    0.15540    1.000
    H22      H        0.54160    0.45560    0.06790    1.000
    C42      C        0.62760    0.34328    0.32630    1.000
    C43      C        0.23060    0.74775    0.20340    1.000
    C44      C        0.14080    0.74832    0.23110    1.000
    C45      C        0.08270    0.78050    0.17770    1.000
    H23      H        0.10020    0.80070    0.12600    1.000
    C46      C        0.99890    0.78230    0.20210    1.000
    C47      C        0.96950    0.75210    0.27970    1.000
    C48      C        0.02720    0.71940    0.32460    1.000
    H24      H        0.00810    0.69800    0.36990    1.000
    C49      C        0.11270    0.71770    0.30400    1.000
    H25      H        0.15120    0.69600    0.33920    1.000
    C50      C        0.87900    0.75340    0.30970    1.000
    C51      C        0.81530    0.72300    0.25340    1.000
    H26      H        0.83240    0.70150    0.20640    1.000
    C52      C        0.72840    0.72400    0.26520    1.000
    H27      H        0.68710    0.70380    0.22360    1.000
    C53      C        0.70190    0.75510    0.33940    1.000
    C54      C        0.76590    0.78430    0.40210    1.000
    H28      H        0.74990    0.80500    0.45370    1.000
    C55      C        0.85270    0.78298    0.38880    1.000
    C56      C        0.60640    0.75803    0.35070    1.000
    N6       N        0.68750    0.52910    0.09030    1.000
    N7       N        0.93840    0.81570    0.13670    1.000
    N8       N        0.91620    0.81499    0.46380    1.000
    N9       N        0.68890    0.48303    0.51030    1.000
    O45      O        0.97450    0.84570    0.10430    1.000
    O46      O        0.85720    0.80690    0.09880    1.000
    O47      O        0.99480    0.81450    0.45900    1.000
    O48      O        0.89450    0.83670    0.54740    1.000
    O49      O        0.75750    0.50240    0.19790    1.000
    O50      O        0.77530    0.55950    0.13690    1.000
    O51      O        0.73490    0.50970    0.47790    1.000
    O52      O        0.66150    0.47360    0.60870    1.000
    N10      N        0.72110    0.53470    0.15660    1.000
    Cu7      Cu       0.41971    0.78336    0.77536    1.000
    Cu8      Cu       0.49278    0.78274    0.51692    1.000
    Cu9      Cu       0.34592    0.72533    0.54010    1.000
    O53      O        0.38230    0.78197    0.57520    1.000
    H29      H        0.34230    0.79940    0.53610    1.000
    O54      O        0.46760    0.84216    0.76530    1.000
    O55      O        0.52800    0.83736    0.58590    1.000
    O56      O        0.29490    0.77168    0.78910    1.000
    O57      O        0.23740    0.73329    0.59990    1.000
    O58      O        0.45570    0.72481    0.47280    1.000
    H30      H        0.49580    0.70790    0.51560    1.000
    O59      O        0.95210    0.66550    0.53990    1.000
    O60      O        0.90170    0.66340    0.70590    1.000
    O61      O        0.99650    0.69520    0.00060    1.000
    O62      O        0.88100    0.65440    0.99510    1.000
    O63      O        0.72460    0.00400    0.60680    1.000
    O64      O        0.72420    0.94820    0.52720    1.000
    O65      O        0.70580    0.98131    0.99470    1.000
    O66      O        0.70520    0.03000    0.12810    1.000
    O67      O        0.59820    0.72126    0.95130    1.000
    O68      O        0.54570    0.76021    0.76460    1.000
    O69      O        0.59890    0.18018    0.72990    1.000
    O70      O        0.66400    0.16751    0.95370    1.000
    C57      C        0.50770    0.85609    0.68210    1.000
    C58      C        0.53450    0.90017    0.70070    1.000
    C59      C        0.48870    0.92640    0.76190    1.000
    H31      H        0.44150    0.91670    0.79390    1.000
    C60      C        0.51180    0.96750    0.77730    1.000
    H32      H        0.47740    0.98510    0.81410    1.000
    C61      C        0.58630    0.98270    0.73810    1.000
    C62      C        0.63020    0.95530    0.67480    1.000
    C63      C        0.60490    0.91517    0.65330    1.000
    H33      H        0.63480    0.89810    0.60720    1.000
    C64      C        0.60680    0.02690    0.76000    1.000
    C65      C        0.64850    0.04340    0.88680    1.000
    C66      C        0.65790    0.08510    0.91170    1.000
    H34      H        0.68730    0.09500    0.99930    1.000
    C67      C        0.62260    0.11131    0.80370    1.000
    C68      C        0.57880    0.09530    0.67580    1.000
    H35      H        0.55380    0.11270    0.60240    1.000
    C69      C        0.57150    0.05420    0.65540    1.000
    H36      H        0.54160    0.04440    0.56790    1.000
    C70      C        0.62760    0.15672    0.82630    1.000
    C71      C        0.23060    0.75225    0.70340    1.000
    C72      C        0.14080    0.75168    0.73110    1.000
    C73      C        0.08270    0.71950    0.67770    1.000
    H37      H        0.10020    0.69930    0.62600    1.000
    C74      C        0.99890    0.71770    0.70210    1.000
    C75      C        0.96950    0.74790    0.77970    1.000
    C76      C        0.02720    0.78060    0.82460    1.000
    H38      H        0.00810    0.80200    0.86990    1.000
    C77      C        0.11270    0.78230    0.80400    1.000
    H39      H        0.15120    0.80400    0.83920    1.000
    C78      C        0.87900    0.74660    0.80970    1.000
    C79      C        0.81530    0.77700    0.75340    1.000
    H40      H        0.83240    0.79850    0.70640    1.000
    C80      C        0.72840    0.77600    0.76520    1.000
    H41      H        0.68710    0.79620    0.72360    1.000
    C81      C        0.70190    0.74490    0.83940    1.000
    C82      C        0.76590    0.71570    0.90210    1.000
    H42      H        0.74990    0.69500    0.95370    1.000
    C83      C        0.85270    0.71702    0.88880    1.000
    C84      C        0.60640    0.74197    0.85070    1.000
    N11      N        0.68750    0.97090    0.59030    1.000
    N12      N        0.93840    0.68430    0.63670    1.000
    N13      N        0.91620    0.68501    0.96380    1.000
    N14      N        0.68890    0.01697    0.01030    1.000
    O71      O        0.97450    0.65430    0.60430    1.000
    O72      O        0.85720    0.69310    0.59880    1.000
    O73      O        0.99480    0.68550    0.95900    1.000
    O74      O        0.89450    0.66330    0.04740    1.000
    O75      O        0.75750    0.99760    0.69790    1.000
    O76      O        0.77530    0.94050    0.63690    1.000
    O77      O        0.73490    0.99030    0.97790    1.000
    O78      O        0.66150    0.02640    0.10870    1.000
    N15      N        0.72110    0.96530    0.65660    1.000
    Cu10     Cu       0.58029    0.28337    0.72464    1.000
    Cu11     Cu       0.50722    0.28274    0.98308    1.000
    Cu12     Cu       0.65408    0.22533    0.95990    1.000
    O79      O        0.61770    0.28197    0.92480    1.000
    H43      H        0.65770    0.29940    0.96390    1.000
    O80      O        0.53240    0.34216    0.73470    1.000
    O81      O        0.47200    0.33736    0.91410    1.000
    O82      O        0.70510    0.27168    0.71090    1.000
    O83      O        0.76260    0.23329    0.90010    1.000
    O84      O        0.54430    0.22481    0.02720    1.000
    H44      H        0.50420    0.20790    0.98440    1.000
    O85      O        0.04790    0.16550    0.96010    1.000
    O86      O        0.09830    0.16340    0.79410    1.000
    O87      O        0.00350    0.19520    0.49940    1.000
    O88      O        0.11900    0.15440    0.50490    1.000
    O89      O        0.27540    0.50400    0.89320    1.000
    O90      O        0.27580    0.44820    0.97280    1.000
    O91      O        0.29420    0.48131    0.50530    1.000
    O92      O        0.29480    0.53000    0.37190    1.000
    O93      O        0.40180    0.22126    0.54870    1.000
    O94      O        0.45430    0.26021    0.73540    1.000
    O95      O        0.40110    0.68018    0.77010    1.000
    O96      O        0.33600    0.66751    0.54630    1.000
    C85      C        0.49230    0.35609    0.81790    1.000
    C86      C        0.46550    0.40017    0.79930    1.000
    C87      C        0.51130    0.42640    0.73810    1.000
    H45      H        0.55850    0.41670    0.70610    1.000
    C88      C        0.48820    0.46750    0.72270    1.000
    H46      H        0.52260    0.48510    0.68590    1.000
    C89      C        0.41370    0.48270    0.76190    1.000
    C90      C        0.36980    0.45530    0.82520    1.000
    C91      C        0.39510    0.41517    0.84670    1.000
    H47      H        0.36520    0.39810    0.89280    1.000
    C92      C        0.39320    0.52690    0.74000    1.000
    C93      C        0.35150    0.54340    0.61320    1.000
    C94      C        0.34210    0.58510    0.58830    1.000
    H48      H        0.31270    0.59500    0.50070    1.000
    C95      C        0.37740    0.61131    0.69630    1.000
    C96      C        0.42120    0.59530    0.82420    1.000
    H49      H        0.44620    0.61270    0.89760    1.000
    C97      C        0.42850    0.55420    0.84460    1.000
    H50      H        0.45840    0.54440    0.93210    1.000
    C98      C        0.37240    0.65672    0.67370    1.000
    C99      C        0.76940    0.25225    0.79660    1.000
    C100     C        0.85920    0.25168    0.76890    1.000
    C101     C        0.91730    0.21950    0.82230    1.000
    H51      H        0.89980    0.19930    0.87400    1.000
    C102     C        0.00110    0.21770    0.79790    1.000
    C103     C        0.03050    0.24790    0.72030    1.000
    C104     C        0.97280    0.28060    0.67540    1.000
    H52      H        0.99190    0.30200    0.63010    1.000
    C105     C        0.88730    0.28230    0.69600    1.000
    H53      H        0.84880    0.30400    0.66080    1.000
    C106     C        0.12100    0.24660    0.69030    1.000
    C107     C        0.18470    0.27700    0.74660    1.000
    H54      H        0.16760    0.29850    0.79360    1.000
    C108     C        0.27160    0.27600    0.73480    1.000
    H55      H        0.31290    0.29620    0.77640    1.000
    C109     C        0.29810    0.24490    0.66060    1.000
    C110     C        0.23410    0.21570    0.59790    1.000
    H56      H        0.25010    0.19500    0.54630    1.000
    C111     C        0.14730    0.21702    0.61120    1.000
    C112     C        0.39360    0.24197    0.64930    1.000
    N16      N        0.31250    0.47090    0.90970    1.000
    N17      N        0.06160    0.18430    0.86330    1.000
    N18      N        0.08380    0.18501    0.53620    1.000
    N19      N        0.31110    0.51697    0.48970    1.000
    O97      O        0.02550    0.15430    0.89570    1.000
    O98      O        0.14280    0.19310    0.90120    1.000
    O99      O        0.00520    0.18550    0.54100    1.000
    O100     O        0.10550    0.16330    0.45260    1.000
    O101     O        0.24250    0.49760    0.80210    1.000
    O102     O        0.22470    0.44050    0.86310    1.000
    O103     O        0.26510    0.49030    0.52210    1.000
    O104     O        0.33850    0.52640    0.39130    1.000
    N20      N        0.27890    0.46530    0.84340    1.000
