# CIF file generated by openbabel 3.1.0, see https://openbabel.org
data_I
_chemical_name_common 'image0'
_cell_length_a 11.2148
_cell_length_b 17.3605
_cell_length_c 26.9709
_cell_angle_alpha 84.067
_cell_angle_beta 85.012
_cell_angle_gamma 71.92
_space_group_name_H-M_alt 'P 1'
_space_group_name_Hall 'P 1'
loop_
    _symmetry_equiv_pos_as_xyz
    x,y,z
loop_
    _atom_site_label
    _atom_site_type_symbol
    _atom_site_fract_x
    _atom_site_fract_y
    _atom_site_fract_z
    _atom_site_occupancy
    Sm1      Sm       0.75334    0.94411    0.59488    1.000
    O1       O        0.81370    0.86390    0.67090    1.000
    O2       O        0.65460    0.03350    0.65570    1.000
    O3       O        0.88550    0.90930    0.51960    1.000
    O4       O        0.75190    0.08450    0.54770    1.000
    O5       O        0.92370    0.99030    0.61690    1.000
    O6       O        0.57610    0.98440    0.55160    1.000
    C1       C        0.93050    0.81840    0.67680    1.000
    C2       C        0.55160    0.05030    0.68190    1.000
    C3       C        0.97130    0.93220    0.50060    1.000
    Sm2      Sm       0.94116    0.11140    0.56859    1.000
    C4       C        0.65430    0.13050    0.52690    1.000
    Sm3      Sm       0.13538    0.89697    0.60798    1.000
    C5       C        0.95880    0.77890    0.72810    1.000
    O7       O        0.01280    0.81340    0.64290    1.000
    C6       C        0.55740    0.04910    0.73820    1.000
    O8       O        0.44670    0.06770    0.66470    1.000
    C7       C        0.00560    0.92170    0.44460    1.000
    O9       O        0.03260    0.97070    0.52140    1.000
    O10      O        0.05630    0.14230    0.49410    1.000
    O11      O        0.81480    0.23370    0.52610    1.000
    O12      O        0.15070    0.03100    0.58290    1.000
    O13      O        0.05070    0.18960    0.60710    1.000
    O14      O        0.82770    0.15880    0.64510    1.000
    C8       C        0.65380    0.13470    0.47060    1.000
    O15      O        0.55920    0.17280    0.54970    1.000
    O16      O        0.29550    0.79280    0.65570    1.000
    O17      O        0.33750    0.90860    0.64700    1.000
    O18      O        0.08440    0.93810    0.69530    1.000
    O19      O        0.16400    0.79080    0.54960    1.000
    O20      O        0.30690    0.85440    0.54200    1.000
    C9       C        0.86190    0.78220    0.76620    1.000
    C10      C        0.08450    0.73980    0.73780    1.000
    C11      C        0.44930    0.08280    0.76490    1.000
    C12      C        0.67240    0.01850    0.76140    1.000
    Sm4      Sm       0.25807    0.09920    0.62783    1.000
    C13      C        0.09980    0.94770    0.41980    1.000
    C14      C        0.93840    0.88550    0.41890    1.000
    C15      C        0.09970    0.19900    0.47540    1.000
    C16      C        0.83550    0.30050    0.51260    1.000
    Sm5      Sm       0.07281    0.31937    0.57509    1.000
    C17      C        0.54720    0.17350    0.44640    1.000
    C18      C        0.76670    0.09630    0.44360    1.000
    Sm6      Sm       0.45207    0.27779    0.60158    1.000
    C19      C        0.33850    0.84400    0.67070    1.000
    C20      C        0.11460    0.98860    0.71620    1.000
    C21      C        0.25820    0.80550    0.52360    1.000
    C22      C        0.89450    0.75050    0.81420    1.000
    C23      C        0.11410    0.70910    0.78580    1.000
    C24      C        0.45210    0.08630    0.81650    1.000
    C25      C        0.67350    0.02080    0.81310    1.000
    C26      C        0.12640    0.93930    0.36780    1.000
    C27      C        0.95800    0.87970    0.36760    1.000
    C28      C        0.11330    0.20740    0.42010    1.000
    O21      O        0.13240    0.24490    0.50050    1.000
    C29      C        0.81500    0.33680    0.46040    1.000
    O22      O        0.88130    0.33810    0.54060    1.000
    O23      O        0.14850    0.04790    0.69530    1.000
    O24      O        0.20710    0.20030    0.68690    1.000
    O25      O        0.37300    0.05490    0.55030    1.000
    O26      O        0.28960    0.22430    0.58390    1.000
    O27      O        0.92490    0.34100    0.64960    1.000
    O28      O        0.08870    0.38080    0.65360    1.000
    O29      O        0.18590    0.39200    0.52160    1.000
    C30      C        0.54610    0.17360    0.39530    1.000
    C31      C        0.76740    0.09890    0.39210    1.000
    C32      C        0.39570    0.82600    0.72190    1.000
    C33      C        0.10660    0.98040    0.77350    1.000
    C34      C        0.30400    0.77340    0.47620    1.000
    C35      C        0.01940    0.71500    0.82430    1.000
    C36      C        0.56560    0.05540    0.84040    1.000
    C37      C        0.05520    0.91010    0.34140    1.000
    C38      C        0.17110    0.26470    0.39620    1.000
    C39      C        0.05960    0.16710    0.39110    1.000
    C40      C        0.76730    0.29940    0.42730    1.000
    C41      C        0.85600    0.40480    0.44260    1.000
    C42      C        0.26060    0.24220    0.70520    1.000
    C43      C        0.47440    0.01480    0.53030    1.000
    C44      C        0.98640    0.37460    0.67140    1.000
    C45      C        0.29330    0.38020    0.50160    1.000
    C46      C        0.65760    0.13400    0.36700    1.000
    C47      C        0.42340    0.88490    0.74500    1.000
    C48      C        0.41380    0.74600    0.74680    1.000
    C49      C        0.15660    0.02900    0.79940    1.000
    C50      C        0.05600    0.92410    0.79980    1.000
    C51      C        0.24040    0.73160    0.45240    1.000
    C52      C        0.40880    0.79000    0.45020    1.000
    C53      C        0.05620    0.68250    0.87410    1.000
    C54      C        0.56580    0.06080    0.89540    1.000
    C55      C        0.06920    0.90840    0.28620    1.000
    C56      C        0.18000    0.27590    0.34590    1.000
    C57      C        0.06320    0.18070    0.33990    1.000
    C58      C        0.75820    0.33040    0.37830    1.000
    C59      C        0.84300    0.43300    0.39290    1.000
    C60      C        0.22700    0.26280    0.75730    1.000
    O30      O        0.35030    0.26560    0.68050    1.000
    C61      C        0.47490    0.99770    0.47580    1.000
    O31      O        0.62870    0.23060    0.64750    1.000
    O32      O        0.39450    0.34180    0.51960    1.000
    C62      C        0.93900    0.40500    0.72200    1.000
    C63      C        0.29660    0.41530    0.44750    1.000
    C64      C        0.66230    0.13400    0.31290    1.000
    C65      C        0.45820    0.87270    0.79270    1.000
    C66      C        0.44100    0.73710    0.79630    1.000
    C67      C        0.15180    0.01980    0.85000    1.000
    C68      C        0.05200    0.91680    0.85130    1.000
    C69      C        0.27380    0.70750    0.40640    1.000
    C70      C        0.45400    0.76040    0.40720    1.000
    C71      C        0.99400    0.63660    0.90580    1.000
    C72      C        0.16100    0.69270    0.89150    1.000
    C73      C        0.48360    0.12720    0.91840    1.000
    C74      C        0.64140    0.00000    0.92640    1.000
    C75      C        0.13830    0.95510    0.25730    1.000
    C76      C        0.02400    0.86230    0.25840    1.000
    C77      C        0.12570    0.23660    0.31670    1.000
    C78      C        0.80350    0.39450    0.35790    1.000
    C79      C        0.29420    0.30290    0.78130    1.000
    C80      C        0.13210    0.23920    0.78350    1.000
    C81      C        0.36520    0.03420    0.45000    1.000
    C82      C        0.58310    0.95140    0.45190    1.000
    C83      C        0.73030    0.19730    0.66530    1.000
    C84      C        0.83100    0.39030    0.74540    1.000
    C85      C        0.00230    0.44480    0.74920    1.000
    C86      C        0.19090    0.45880    0.42340    1.000
    C87      C        0.41400    0.39560    0.41930    1.000
    C88      C        0.58750    0.19740    0.28180    1.000
    C89      C        0.74000    0.06460    0.28790    1.000
    C90      C        0.46040    0.79840    0.82110    1.000
    C91      C        0.10560    0.96100    0.87780    1.000
    C92      C        0.38100    0.72010    0.38300    1.000
    C93      C        0.03400    0.60570    0.95190    1.000
    C94      C        0.19700    0.66870    0.94350    1.000
    C95      C        0.48350    0.13140    0.96830    1.000
    C96      C        0.64130    0.00630    0.97720    1.000
    C97      C        0.15000    0.95810    0.20900    1.000
    C98      C        0.03060    0.87010    0.20970    1.000
    C99      C        0.12030    0.25250    0.26140    1.000
    C100     C        0.80520    0.41990    0.30600    1.000
    C101     C        0.26710    0.31400    0.83180    1.000
    C102     C        0.10540    0.25200    0.83250    1.000
    C103     C        0.36960    0.02640    0.39970    1.000
    C104     C        0.58530    0.94070    0.40060    1.000
    C105     C        0.73710    0.20100    0.72190    1.000
    C106     C        0.78100    0.41530    0.79100    1.000
    C107     C        0.95270    0.46820    0.79750    1.000
    C108     C        0.19580    0.48850    0.37380    1.000
    C109     C        0.41510    0.42750    0.36950    1.000
    C110     C        0.59800    0.19010    0.23070    1.000
    C111     C        0.74160    0.06580    0.23810    1.000
    C112     C        0.48680    0.78580    0.87490    1.000
    C113     C        0.10530    0.94990    0.93320    1.000
    C114     C        0.44200    0.70210    0.33080    1.000
    N1       N        0.13280    0.62440    0.97250    1.000
    N2       N        0.56090    0.07440    0.99940    1.000
    N3       N        0.09720    0.91610    0.18180    1.000
    C115     C        0.20000    0.29970    0.23530    1.000
    C116     C        0.08800    0.21800    0.22970    1.000
    C117     C        0.86830    0.46940    0.28090    1.000
    C118     C        0.71400    0.42800    0.27480    1.000
    C119     C        0.17940    0.28500    0.85930    1.000
    C120     C        0.47860    0.97930    0.37330    1.000
    C121     C        0.84670    0.16510    0.74510    1.000
    C122     C        0.62720    0.24270    0.74980    1.000
    C123     C        0.84750    0.45370    0.81890    1.000
    C124     C        0.30640    0.46780    0.34340    1.000
    N4       N        0.67580    0.12770    0.20800    1.000
    C125     C        0.54200    0.83900    0.90070    1.000
    C126     C        0.54100    0.71000    0.89820    1.000
    C127     C        0.18300    0.98080    0.95920    1.000
    C128     C        0.02680    0.91650    0.96380    1.000
    C129     C        0.35300    0.71910    0.28830    1.000
    C130     C        0.55900    0.69500    0.31600    1.000
    Cu1      Cu       0.18270    0.58896    0.04205    1.000
    Cu2      Cu       0.53930    0.08410    0.07437    1.000
    Cu3      Cu       0.10090    0.93160    0.10950    1.000
    C131     C        0.18500    0.32150    0.18630    1.000
    C132     C        0.09800    0.23400    0.17680    1.000
    C133     C        0.87900    0.48400    0.23130    1.000
    C134     C        0.70100    0.46600    0.22300    1.000
    C135     C        0.16020    0.29360    0.91360    1.000
    C136     C        0.48180    0.97700    0.31980    1.000
    C137     C        0.85140    0.16830    0.79690    1.000
    C138     C        0.63250    0.24660    0.80030    1.000
    C139     C        0.79460    0.47400    0.86980    1.000
    C140     C        0.31400    0.48910    0.29160    1.000
    Cu4      Cu       0.70066    0.12685    0.13223    1.000
    C141     C        0.52000    0.83600    0.94850    1.000
    C142     C        0.57000    0.69800    0.94970    1.000
    C143     C        0.22400    0.95200    0.00820    1.000
    C144     C        0.02660    0.91160    0.01650    1.000
    C145     C        0.40800    0.71010    0.24470    1.000
    C146     C        0.60700    0.66500    0.27160    1.000
    I1       I        0.01927    0.51341    0.09062    1.000
    I2       I        0.18472    0.71380    0.09244    1.000
    I3       I        0.39892    0.47041    0.04476    1.000
    I4       I        0.72837    0.96391    0.11416    1.000
    I5       I        0.30394    0.08557    0.10108    1.000
    I6       I        0.51445    0.23678    0.09124    1.000
    N5       N        0.11070    0.29130    0.15770    1.000
    N6       N        0.80830    0.46040    0.20160    1.000
    C147     C        0.19900    0.34820    0.93630    1.000
    C148     C        0.10630    0.24420    0.94580    1.000
    C149     C        0.41210    0.04160    0.28910    1.000
    C150     C        0.54990    0.90700    0.29630    1.000
    C151     C        0.74400    0.20980    0.82440    1.000
    C152     C        0.66700    0.49340    0.88230    1.000
    C153     C        0.87130    0.46270    0.90860    1.000
    C154     C        0.21900    0.55900    0.26890    1.000
    C155     C        0.42700    0.48000    0.26320    1.000
    N7       N        0.75480    0.22170    0.98350    1.000
    N8       N        0.52950    0.76260    0.97750    1.000
    N9       N        0.10810    0.93170    0.03840    1.000
    N10      N        0.52600    0.68660    0.23170    1.000
    Cu5      Cu       0.80880    0.48430    0.12471    1.000
    Cu6      Cu       0.96770    0.67478    0.09365    1.000
    Cu7      Cu       0.10050    0.31560    0.08721    1.000
    Cu8      Cu       0.36060    0.57250    0.11030    1.000
    Cu9      Cu       0.69310    0.82095    0.10655    1.000
    Cu10     Cu       0.49086    0.97179    0.13980    1.000
    Cu11     Cu       0.74989    0.22541    0.05830    1.000
    C156     C        0.17370    0.35660    0.98880    1.000
    C157     C        0.08970    0.25030    0.99560    1.000
    C158     C        0.41570    0.03600    0.23680    1.000
    C159     C        0.54820    0.90690    0.24420    1.000
    C160     C        0.74740    0.21550    0.88000    1.000
    C161     C        0.62230    0.50310    0.93090    1.000
    C162     C        0.82100    0.47280    0.95830    1.000
    C163     C        0.22800    0.55920    0.21470    1.000
    C164     C        0.41000    0.46570    0.20560    1.000
    Cu12     Cu       0.59640    0.74428    0.04765    1.000
    Cu13     Cu       0.60580    0.70845    0.16130    1.000
    I7       I        0.60511    0.60248    0.09769    1.000
    I8       I        0.79219    0.35744    0.08628    1.000
    I9       I        0.82015    0.76459    0.02249    1.000
    I10      I        0.82986    0.72060    0.17723    1.000
    N11      N        0.31700    0.53730    0.18630    1.000
    I11      I        0.44368    0.84010    0.11248    1.000
    N12      N        0.48170    0.97030    0.21490    1.000
    I12      I        0.93400    0.11414    0.10259    1.000
    N13      N        0.12700    0.30280    0.01800    1.000
    C165     C        0.82550    0.15100    0.90820    1.000
    C166     C        0.67000    0.28260    0.90400    1.000
    N14      N        0.69950    0.49090    0.96820    1.000
    Cu14     Cu       0.63240    0.47855    0.04125    1.000
    C167     C        0.82970    0.15560    0.96110    1.000
    C168     C        0.67730    0.28310    0.95490    1.000
    Cu15     Cu       0.39560    0.70390    0.14120    1.000
    Cu16     Cu       0.81470    0.57440    0.14420    1.000
    C169     C        0.46900    0.71800    0.90420    1.000
    C170     C        0.17300    0.98510    0.00950    1.000
    C171     C        0.37900    0.69800    0.21610    1.000
    C172     C        0.27000    0.71800    0.29500    1.000
    C173     C        0.37300    0.70800    0.31440    1.000
    C174     C        0.56500    0.66400    0.31880    1.000
    Cu17     Cu       0.30630    0.56450    0.11560    1.000
    C175     C        0.78200    0.37800    0.21310    1.000
    C176     C        0.78100    0.36100    0.26830    1.000
    C177     C        0.20400    0.52600    0.26150    1.000
    C178     C        0.39300    0.43700    0.25570    1.000
    C179     C        0.01700    0.23700    0.23710    1.000
    C180     C        0.02700    0.25950    0.18100    1.000
    C181     C        0.80800    0.51100    0.22000    1.000
    C182     C        0.68200    0.66900    0.25300    1.000
    C183     C        0.46200    0.83160    0.95620    1.000
    C184     C        0.46100    0.84600    0.90800    1.000
    C185     C        0.49600    0.70820    0.95660    1.000
