# CIF file generated by openbabel 3.1.0, see https://openbabel.org
data_I
_chemical_name_common 'image0'
_cell_length_a 6.5228
_cell_length_b 6.5228
_cell_length_c 6.5228
_cell_angle_alpha 90
_cell_angle_beta 90
_cell_angle_gamma 90
_space_group_name_H-M_alt 'P 1'
_space_group_name_Hall 'P 1'
loop_
    _symmetry_equiv_pos_as_xyz
    x,y,z
loop_
    _atom_site_label
    _atom_site_type_symbol
    _atom_site_fract_x
    _atom_site_fract_y
    _atom_site_fract_z
    _atom_site_occupancy
    Cd1      Cd       0.00000    0.00000    0.00000    1.000
    N1       N        0.00000    0.34530    0.08500    1.000
    N2       N        0.00000    0.65470    0.08500    1.000
    N3       N        0.00000    0.34530    0.91500    1.000
    N4       N        0.00000    0.65470    0.91500    1.000
    N5       N        0.08500    0.00000    0.34530    1.000
    N6       N        0.08500    0.00000    0.65470    1.000
    N7       N        0.91500    0.00000    0.34530    1.000
    N8       N        0.91500    0.00000    0.65470    1.000
    N9       N        0.34530    0.08500    0.00000    1.000
    N10      N        0.65470    0.08500    0.00000    1.000
    N11      N        0.34530    0.91500    0.00000    1.000
    N12      N        0.65470    0.91500    0.00000    1.000
    N13      N        0.34530    0.00000    0.91500    1.000
    N14      N        0.65470    0.00000    0.91500    1.000
    N15      N        0.34530    0.00000    0.08500    1.000
    N16      N        0.65470    0.00000    0.08500    1.000
    N17      N        0.00000    0.08500    0.65470    1.000
    N18      N        0.00000    0.08500    0.34530    1.000
    N19      N        0.00000    0.91500    0.65470    1.000
    N20      N        0.00000    0.91500    0.34530    1.000
    N21      N        0.08500    0.34530    0.00000    1.000
    N22      N        0.08500    0.65470    0.00000    1.000
    N23      N        0.91500    0.34530    0.00000    1.000
    N24      N        0.91500    0.65470    0.00000    1.000
    N25      N        0.00000    0.50000    0.00000    1.000
    N26      N        0.00000    0.00000    0.50000    1.000
    N27      N        0.50000    0.00000    0.00000    1.000
