# CIF file generated by openbabel 3.1.0, see https://openbabel.org
data_I
_chemical_name_common 'image0'
_cell_length_a 13.5779
_cell_length_b 16.9882
_cell_length_c 9.6192
_cell_angle_alpha 90
_cell_angle_beta 90
_cell_angle_gamma 90
_space_group_name_H-M_alt 'P 1'
_space_group_name_Hall 'P 1'
loop_
    _symmetry_equiv_pos_as_xyz
    x,y,z
loop_
    _atom_site_label
    _atom_site_type_symbol
    _atom_site_fract_x
    _atom_site_fract_y
    _atom_site_fract_z
    _atom_site_occupancy
    O1       O        0.60181    0.58433    0.38470    1.000
    C1       C        0.72000    0.71693    0.62750    1.000
    H1       H        0.69860    0.69460    0.71300    1.000
    H2       H        0.44100    0.39130    0.11420    1.000
    C2       C        0.41270    0.45910    0.07990    1.000
    H3       H        0.35250    0.48550    0.11430    1.000
    H4       H        0.41220    0.40410    0.11430    1.000
    O2       O        0.10181    0.08433    0.38470    1.000
    C3       C        0.22000    0.21693    0.62750    1.000
    H5       H        0.19860    0.19460    0.71300    1.000
    H6       H        0.94100    0.89130    0.11420    1.000
    C4       C        0.91270    0.95910    0.07990    1.000
    H7       H        0.85250    0.98550    0.11430    1.000
    H8       H        0.91220    0.90410    0.11430    1.000
    O3       O        0.39819    0.41567    0.38470    1.000
    C5       C        0.28000    0.28307    0.62750    1.000
    H9       H        0.30140    0.30540    0.71300    1.000
    H10      H        0.55900    0.60870    0.11420    1.000
    C6       C        0.58730    0.54090    0.07990    1.000
    H11      H        0.64750    0.51450    0.11430    1.000
    H12      H        0.58780    0.59590    0.11430    1.000
    O4       O        0.89819    0.91567    0.38470    1.000
    C7       C        0.78000    0.78307    0.62750    1.000
    H13      H        0.80140    0.80540    0.71300    1.000
    H14      H        0.05900    0.10870    0.11420    1.000
    C8       C        0.08730    0.04090    0.07990    1.000
    H15      H        0.14750    0.01450    0.11430    1.000
    H16      H        0.08780    0.09590    0.11430    1.000
    O5       O        0.39819    0.58433    0.61530    1.000
    C9       C        0.28000    0.71693    0.37250    1.000
    H17      H        0.30140    0.69460    0.28700    1.000
    H18      H        0.55900    0.39130    0.88580    1.000
    C10      C        0.58730    0.45910    0.92010    1.000
    H19      H        0.64750    0.48550    0.88570    1.000
    H20      H        0.58780    0.40410    0.88570    1.000
    O6       O        0.89819    0.08433    0.61530    1.000
    C11      C        0.78000    0.21693    0.37250    1.000
    H21      H        0.80140    0.19460    0.28700    1.000
    H22      H        0.05900    0.89130    0.88580    1.000
    C12      C        0.08730    0.95910    0.92010    1.000
    H23      H        0.14750    0.98550    0.88570    1.000
    H24      H        0.08780    0.90410    0.88570    1.000
    O7       O        0.60181    0.41567    0.61530    1.000
    C13      C        0.72000    0.28307    0.37250    1.000
    H25      H        0.69860    0.30540    0.28700    1.000
    H26      H        0.44100    0.60870    0.88580    1.000
    C14      C        0.41270    0.54090    0.92010    1.000
    H27      H        0.35250    0.51450    0.88570    1.000
    H28      H        0.41220    0.59590    0.88570    1.000
    O8       O        0.10181    0.91567    0.61530    1.000
    C15      C        0.22000    0.78307    0.37250    1.000
    H29      H        0.19860    0.80540    0.28700    1.000
    H30      H        0.94100    0.10870    0.88580    1.000
    C16      C        0.91270    0.04090    0.92010    1.000
    H31      H        0.85250    0.01450    0.88570    1.000
    H32      H        0.91220    0.09590    0.88570    1.000
    O9       O        0.39819    0.41567    0.61530    1.000
    C17      C        0.28000    0.28307    0.37250    1.000
    H33      H        0.30140    0.30540    0.28700    1.000
    H34      H        0.55900    0.60870    0.88580    1.000
    C18      C        0.58730    0.54090    0.92010    1.000
    H35      H        0.64750    0.51450    0.88570    1.000
    H36      H        0.58780    0.59590    0.88570    1.000
    O10      O        0.89819    0.91567    0.61530    1.000
    C19      C        0.78000    0.78307    0.37250    1.000
    H37      H        0.80140    0.80540    0.28700    1.000
    H38      H        0.05900    0.10870    0.88580    1.000
    C20      C        0.08730    0.04090    0.92010    1.000
    H39      H        0.14750    0.01450    0.88570    1.000
    H40      H        0.08780    0.09590    0.88570    1.000
    O11      O        0.60181    0.58433    0.61530    1.000
    C21      C        0.72000    0.71693    0.37250    1.000
    H41      H        0.69860    0.69460    0.28700    1.000
    H42      H        0.44100    0.39130    0.88580    1.000
    C22      C        0.41270    0.45910    0.92010    1.000
    H43      H        0.35250    0.48550    0.88570    1.000
    H44      H        0.41220    0.40410    0.88570    1.000
    O12      O        0.10181    0.08433    0.61530    1.000
    C23      C        0.22000    0.21693    0.37250    1.000
    H45      H        0.19860    0.19460    0.28700    1.000
    H46      H        0.94100    0.89130    0.88580    1.000
    C24      C        0.91270    0.95910    0.92010    1.000
    H47      H        0.85250    0.98550    0.88570    1.000
    H48      H        0.91220    0.90410    0.88570    1.000
    O13      O        0.60181    0.41567    0.38470    1.000
    C25      C        0.72000    0.28307    0.62750    1.000
    H49      H        0.69860    0.30540    0.71300    1.000
    H50      H        0.44100    0.60870    0.11420    1.000
    C26      C        0.41270    0.54090    0.07990    1.000
    H51      H        0.35250    0.51450    0.11430    1.000
    H52      H        0.41220    0.59590    0.11430    1.000
    O14      O        0.10181    0.91567    0.38470    1.000
    C27      C        0.22000    0.78307    0.62750    1.000
    H53      H        0.19860    0.80540    0.71300    1.000
    H54      H        0.94100    0.10870    0.11420    1.000
    C28      C        0.91270    0.04090    0.07990    1.000
    H55      H        0.85250    0.01450    0.11430    1.000
    H56      H        0.91220    0.09590    0.11430    1.000
    O15      O        0.39819    0.58433    0.38470    1.000
    C29      C        0.28000    0.71693    0.62750    1.000
    H57      H        0.30140    0.69460    0.71300    1.000
    H58      H        0.55900    0.39130    0.11420    1.000
    C30      C        0.58730    0.45910    0.07990    1.000
    H59      H        0.64750    0.48550    0.11430    1.000
    H60      H        0.58780    0.40410    0.11430    1.000
    O16      O        0.89819    0.08433    0.38470    1.000
    C31      C        0.78000    0.21693    0.62750    1.000
    H61      H        0.80140    0.19460    0.71300    1.000
    H62      H        0.05900    0.89130    0.11420    1.000
    C32      C        0.08730    0.95910    0.07990    1.000
    H63      H        0.14750    0.98550    0.11430    1.000
    H64      H        0.08780    0.90410    0.11430    1.000
    Zn1      Zn       0.50000    0.50000    0.34787    1.000
    N1       N        0.50000    0.50000    0.13380    1.000
    Zn2      Zn       0.00000    0.00000    0.34787    1.000
    N2       N        0.00000    0.00000    0.13380    1.000
    Zn3      Zn       0.50000    0.50000    0.65213    1.000
    N3       N        0.50000    0.50000    0.86620    1.000
    Zn4      Zn       0.00000    0.00000    0.65213    1.000
    N4       N        0.00000    0.00000    0.86620    1.000
    C33      C        0.62660    0.61112    0.50000    1.000
    C34      C        0.69060    0.68297    0.50000    1.000
    C35      C        0.12660    0.11112    0.50000    1.000
    C36      C        0.19060    0.18297    0.50000    1.000
    C37      C        0.37340    0.38888    0.50000    1.000
    C38      C        0.30940    0.31703    0.50000    1.000
    C39      C        0.87340    0.88888    0.50000    1.000
    C40      C        0.80940    0.81703    0.50000    1.000
    C41      C        0.37340    0.61112    0.50000    1.000
    C42      C        0.30940    0.68297    0.50000    1.000
    C43      C        0.87340    0.11112    0.50000    1.000
    C44      C        0.80940    0.18297    0.50000    1.000
    C45      C        0.62660    0.38888    0.50000    1.000
    C46      C        0.69060    0.31703    0.50000    1.000
    C47      C        0.12660    0.88888    0.50000    1.000
    C48      C        0.19060    0.81703    0.50000    1.000
    C49      C        0.50000    0.41950    0.07990    1.000
    C50      C        0.00000    0.91950    0.07990    1.000
    C51      C        0.50000    0.58050    0.07990    1.000
    C52      C        0.00000    0.08050    0.07990    1.000
    C53      C        0.50000    0.41950    0.92010    1.000
    C54      C        0.00000    0.91950    0.92010    1.000
    C55      C        0.50000    0.58050    0.92010    1.000
    C56      C        0.00000    0.08050    0.92010    1.000
