# CIF file generated by openbabel 3.1.0, see https://openbabel.org
data_I
_chemical_name_common 'image0'
_cell_length_a 23.7422
_cell_length_b 23.7422
_cell_length_c 13.4888
_cell_angle_alpha 90
_cell_angle_beta 90
_cell_angle_gamma 120
_space_group_name_H-M_alt 'P 1'
_space_group_name_Hall 'P 1'
loop_
    _symmetry_equiv_pos_as_xyz
    x,y,z
loop_
    _atom_site_label
    _atom_site_type_symbol
    _atom_site_fract_x
    _atom_site_fract_y
    _atom_site_fract_z
    _atom_site_occupancy
    Co1      Co       0.36039    0.09303    0.11998    1.000
    Cr1      Cr       0.34981    0.24277    0.91542    1.000
    P1       P        0.41876    0.23619    0.11949    1.000
    P2       P        0.32681    0.98696    0.27712    1.000
    O1       O        0.36719    0.21018    0.03740    1.000
    O2       O        0.42234    0.17578    0.15640    1.000
    O3       O        0.39150    0.25946    0.20650    1.000
    O4       O        0.48414    0.28969    0.08930    1.000
    O5       O        0.37531    0.04450    0.21160    1.000
    O6       O        0.36705    0.95863    0.32500    1.000
    O7       O        0.27152    0.93516    0.21730    1.000
    O8       O        0.30027    0.01060    0.36000    1.000
    N1       N        0.44440    0.27551    0.86930    1.000
    N2       N        0.33260    0.15656    0.85110    1.000
    N3       N        0.25082    0.18856    0.94130    1.000
    C1       C        0.44730    0.21820    0.83040    1.000
    C2       C        0.38500    0.17300    0.77980    1.000
    C3       C        0.26480    0.12230    0.81690    1.000
    C4       C        0.22370    0.12100    0.90370    1.000
    H1       H        0.45560    0.30500    0.82020    1.000
    H2       H        0.47250    0.29270    0.92060    1.000
    H3       H        0.32800    0.12600    0.89390    1.000
    H4       H        0.23540    0.21020    0.91620    1.000
    H5       H        0.23700    0.18200    0.00510    1.000
    H6       H        0.45290    0.19350    0.88910    1.000
    H7       H        0.48400    0.23800    0.78780    1.000
    H8       H        0.37840    0.19390    0.72360    1.000
    H9       H        0.38990    0.13760    0.74610    1.000
    H10      H        0.25460    0.14780    0.76430    1.000
    H11      H        0.25810    0.08020    0.79560    1.000
    H12      H        0.18040    0.10730    0.87410    1.000
    H13      H        0.22800    0.09720    0.96180    1.000
    Ga1      Ga       0.30628    0.24030    0.21335    1.000
    Ga2      Ga       0.24277    0.89296    0.08458    1.000
    Co2      Co       0.02706    0.42636    0.45331    1.000
    Cr2      Cr       0.01648    0.57610    0.24875    1.000
    P3       P        0.08543    0.56952    0.45282    1.000
    P4       P        0.99348    0.32029    0.61045    1.000
    O9       O        0.03386    0.54351    0.37073    1.000
    O10      O        0.08901    0.50911    0.48973    1.000
    O11      O        0.05817    0.59279    0.53983    1.000
    O12      O        0.15081    0.62302    0.42263    1.000
    O13      O        0.04198    0.37783    0.54493    1.000
    O14      O        0.03372    0.29196    0.65833    1.000
    O15      O        0.93819    0.26849    0.55063    1.000
    O16      O        0.96694    0.34393    0.69333    1.000
    N4       N        0.11107    0.60884    0.20263    1.000
    N5       N        0.99927    0.48989    0.18443    1.000
    N6       N        0.91749    0.52189    0.27463    1.000
    C5       C        0.11397    0.55153    0.16373    1.000
    C6       C        0.05167    0.50633    0.11313    1.000
    C7       C        0.93147    0.45563    0.15023    1.000
    C8       C        0.89037    0.45433    0.23703    1.000
    H14      H        0.12227    0.63833    0.15353    1.000
    H15      H        0.13917    0.62603    0.25393    1.000
    H16      H        0.99467    0.45933    0.22723    1.000
    H17      H        0.90207    0.54353    0.24953    1.000
    H18      H        0.90367    0.51533    0.33843    1.000
    H19      H        0.11957    0.52683    0.22243    1.000
    H20      H        0.15067    0.57133    0.12113    1.000
    H21      H        0.04507    0.52723    0.05693    1.000
    H22      H        0.05657    0.47093    0.07943    1.000
    H23      H        0.92127    0.48113    0.09763    1.000
    H24      H        0.92477    0.41353    0.12893    1.000
    H25      H        0.84707    0.44063    0.20743    1.000
    H26      H        0.89467    0.43053    0.29513    1.000
    Ga3      Ga       0.97294    0.57364    0.54669    1.000
    Ga4      Ga       0.90944    0.22629    0.41791    1.000
    Co3      Co       0.69372    0.75970    0.78665    1.000
    Cr3      Cr       0.68314    0.90944    0.58209    1.000
    P5       P        0.75209    0.90286    0.78616    1.000
    P6       P        0.66014    0.65363    0.94379    1.000
    O17      O        0.70052    0.87685    0.70407    1.000
    O18      O        0.75567    0.84245    0.82307    1.000
    O19      O        0.72483    0.92613    0.87317    1.000
    O20      O        0.81747    0.95636    0.75597    1.000
    O21      O        0.70864    0.71117    0.87827    1.000
    O22      O        0.70038    0.62530    0.99167    1.000
    O23      O        0.60485    0.60183    0.88397    1.000
    O24      O        0.63360    0.67727    0.02667    1.000
    N7       N        0.77773    0.94218    0.53597    1.000
    N8       N        0.66593    0.82323    0.51777    1.000
    N9       N        0.58415    0.85523    0.60797    1.000
    C9       C        0.78063    0.88487    0.49707    1.000
    C10      C        0.71833    0.83967    0.44647    1.000
    C11      C        0.59813    0.78897    0.48357    1.000
    C12      C        0.55703    0.78767    0.57037    1.000
    H27      H        0.78893    0.97167    0.48687    1.000
    H28      H        0.80583    0.95937    0.58727    1.000
    H29      H        0.66133    0.79267    0.56057    1.000
    H30      H        0.56873    0.87687    0.58287    1.000
    H31      H        0.57033    0.84867    0.67177    1.000
    H32      H        0.78623    0.86017    0.55577    1.000
    H33      H        0.81733    0.90467    0.45447    1.000
    H34      H        0.71173    0.86057    0.39027    1.000
    H35      H        0.72323    0.80427    0.41277    1.000
    H36      H        0.58793    0.81447    0.43097    1.000
    H37      H        0.59143    0.74687    0.46227    1.000
    H38      H        0.51373    0.77397    0.54077    1.000
    H39      H        0.56133    0.76387    0.62847    1.000
    Ga5      Ga       0.63961    0.90697    0.88002    1.000
    Ga6      Ga       0.57610    0.55963    0.75125    1.000
    Co4      Co       0.90697    0.26736    0.11998    1.000
    Cr4      Cr       0.75723    0.10704    0.91542    1.000
    P7       P        0.76381    0.18257    0.11949    1.000
    P8       P        0.01304    0.33985    0.27712    1.000
    O25      O        0.78982    0.15701    0.03740    1.000
    O26      O        0.82422    0.24656    0.15640    1.000
    O27      O        0.74054    0.13204    0.20650    1.000
    O28      O        0.71031    0.19445    0.08930    1.000
    O29      O        0.95550    0.33081    0.21160    1.000
    O30      O        0.04137    0.40842    0.32500    1.000
    O31      O        0.06484    0.33636    0.21730    1.000
    O32      O        0.98940    0.28967    0.36000    1.000
    N10      N        0.72449    0.16889    0.86930    1.000
    N11      N        0.84344    0.17604    0.85110    1.000
    N12      N        0.81144    0.06226    0.94130    1.000
    C13      C        0.78180    0.22910    0.83040    1.000
    C14      C        0.82700    0.21200    0.77980    1.000
    C15      C        0.87770    0.14250    0.81690    1.000
    C16      C        0.87900    0.10270    0.90370    1.000
    H40      H        0.69500    0.15060    0.82020    1.000
    H41      H        0.70730    0.17980    0.92060    1.000
    H42      H        0.87400    0.20200    0.89390    1.000
    H43      H        0.78980    0.02520    0.91620    1.000
    H44      H        0.81800    0.05500    0.00510    1.000
    H45      H        0.80650    0.25940    0.88910    1.000
    H46      H        0.76200    0.24600    0.78780    1.000
    H47      H        0.80610    0.18450    0.72360    1.000
    H48      H        0.86240    0.25230    0.74610    1.000
    H49      H        0.85220    0.10680    0.76430    1.000
    H50      H        0.91980    0.17790    0.79560    1.000
    H51      H        0.89270    0.07310    0.87410    1.000
    H52      H        0.90280    0.13080    0.96180    1.000
    Ga7      Ga       0.75970    0.06597    0.21335    1.000
    Ga8      Ga       0.10704    0.34981    0.08458    1.000
    Co5      Co       0.57364    0.60069    0.45331    1.000
    Cr5      Cr       0.42390    0.44037    0.24875    1.000
    P9       P        0.43048    0.51590    0.45282    1.000
    P10      P        0.67971    0.67318    0.61045    1.000
    O33      O        0.45649    0.49034    0.37073    1.000
    O34      O        0.49089    0.57989    0.48973    1.000
    O35      O        0.40721    0.46537    0.53983    1.000
    O36      O        0.37698    0.52778    0.42263    1.000
    O37      O        0.62217    0.66414    0.54493    1.000
    O38      O        0.70804    0.74175    0.65833    1.000
    O39      O        0.73151    0.66969    0.55063    1.000
    O40      O        0.65607    0.62300    0.69333    1.000
    N13      N        0.39116    0.50222    0.20263    1.000
    N14      N        0.51011    0.50937    0.18443    1.000
    N15      N        0.47811    0.39559    0.27463    1.000
    C17      C        0.44847    0.56243    0.16373    1.000
    C18      C        0.49367    0.54533    0.11313    1.000
    C19      C        0.54437    0.47583    0.15023    1.000
    C20      C        0.54567    0.43603    0.23703    1.000
    H53      H        0.36167    0.48393    0.15353    1.000
    H54      H        0.37397    0.51313    0.25393    1.000
    H55      H        0.54067    0.53533    0.22723    1.000
    H56      H        0.45647    0.35853    0.24953    1.000
    H57      H        0.48467    0.38833    0.33843    1.000
    H58      H        0.47317    0.59273    0.22243    1.000
    H59      H        0.42867    0.57933    0.12113    1.000
    H60      H        0.47277    0.51783    0.05693    1.000
    H61      H        0.52907    0.58563    0.07943    1.000
    H62      H        0.51887    0.44013    0.09763    1.000
    H63      H        0.58647    0.51123    0.12893    1.000
    H64      H        0.55937    0.40643    0.20743    1.000
    H65      H        0.56947    0.46413    0.29513    1.000
    Ga9      Ga       0.42636    0.39931    0.54669    1.000
    Ga10     Ga       0.77371    0.68314    0.41791    1.000
    Co6      Co       0.24030    0.93403    0.78665    1.000
    Cr6      Cr       0.09056    0.77371    0.58209    1.000
    P11      P        0.09714    0.84924    0.78616    1.000
    P12      P        0.34637    0.00652    0.94379    1.000
    O41      O        0.12315    0.82368    0.70407    1.000
    O42      O        0.15755    0.91323    0.82307    1.000
    O43      O        0.07387    0.79871    0.87317    1.000
    O44      O        0.04364    0.86112    0.75597    1.000
    O45      O        0.28883    0.99748    0.87827    1.000
    O46      O        0.37470    0.07509    0.99167    1.000
    O47      O        0.39817    0.00303    0.88397    1.000
    O48      O        0.32273    0.95634    0.02667    1.000
    N16      N        0.05782    0.83556    0.53597    1.000
    N17      N        0.17677    0.84271    0.51777    1.000
    N18      N        0.14477    0.72893    0.60797    1.000
    C21      C        0.11513    0.89577    0.49707    1.000
    C22      C        0.16033    0.87867    0.44647    1.000
    C23      C        0.21103    0.80917    0.48357    1.000
    C24      C        0.21233    0.76937    0.57037    1.000
    H66      H        0.02833    0.81727    0.48687    1.000
    H67      H        0.04063    0.84647    0.58727    1.000
    H68      H        0.20733    0.86867    0.56057    1.000
    H69      H        0.12313    0.69187    0.58287    1.000
    H70      H        0.15133    0.72167    0.67177    1.000
    H71      H        0.13983    0.92607    0.55577    1.000
    H72      H        0.09533    0.91267    0.45447    1.000
    H73      H        0.13943    0.85117    0.39027    1.000
    H74      H        0.19573    0.91897    0.41277    1.000
    H75      H        0.18553    0.77347    0.43097    1.000
    H76      H        0.25313    0.84457    0.46227    1.000
    H77      H        0.22603    0.73977    0.54077    1.000
    H78      H        0.23613    0.79747    0.62847    1.000
    Ga11     Ga       0.09303    0.73264    0.88002    1.000
    Ga12     Ga       0.44037    0.01648    0.75125    1.000
    Co7      Co       0.73264    0.63961    0.11998    1.000
    Cr7      Cr       0.89296    0.65019    0.91542    1.000
    P13      P        0.81743    0.58124    0.11949    1.000
    P14      P        0.66015    0.67319    0.27712    1.000
    O49      O        0.84299    0.63281    0.03740    1.000
    O50      O        0.75344    0.57766    0.15640    1.000
    O51      O        0.86796    0.60850    0.20650    1.000
    O52      O        0.80555    0.51586    0.08930    1.000
    O53      O        0.66919    0.62469    0.21160    1.000
    O54      O        0.59158    0.63295    0.32500    1.000
    O55      O        0.66364    0.72848    0.21730    1.000
    O56      O        0.71033    0.69973    0.36000    1.000
    N19      N        0.83111    0.55560    0.86930    1.000
    N20      N        0.82396    0.66740    0.85110    1.000
    N21      N        0.93774    0.74918    0.94130    1.000
    C25      C        0.77090    0.55270    0.83040    1.000
    C26      C        0.78800    0.61500    0.77980    1.000
    C27      C        0.85750    0.73520    0.81690    1.000
    C28      C        0.89730    0.77630    0.90370    1.000
    H79      H        0.84940    0.54440    0.82020    1.000
    H80      H        0.82020    0.52750    0.92060    1.000
    H81      H        0.79800    0.67200    0.89390    1.000
    H82      H        0.97480    0.76460    0.91620    1.000
    H83      H        0.94500    0.76300    0.00510    1.000
    H84      H        0.74060    0.54710    0.88910    1.000
    H85      H        0.75400    0.51600    0.78780    1.000
    H86      H        0.81550    0.62160    0.72360    1.000
    H87      H        0.74770    0.61010    0.74610    1.000
    H88      H        0.89320    0.74540    0.76430    1.000
    H89      H        0.82210    0.74190    0.79560    1.000
    H90      H        0.92690    0.81960    0.87410    1.000
    H91      H        0.86920    0.77200    0.96180    1.000
    Ga13     Ga       0.93403    0.69372    0.21335    1.000
    Ga14     Ga       0.65019    0.75723    0.08458    1.000
    Co8      Co       0.39931    0.97294    0.45331    1.000
    Cr8      Cr       0.55963    0.98352    0.24875    1.000
    P15      P        0.48410    0.91457    0.45282    1.000
    P16      P        0.32682    0.00652    0.61045    1.000
    O57      O        0.50966    0.96614    0.37073    1.000
    O58      O        0.42011    0.91099    0.48973    1.000
    O59      O        0.53463    0.94183    0.53983    1.000
    O60      O        0.47222    0.84919    0.42263    1.000
    O61      O        0.33586    0.95802    0.54493    1.000
    O62      O        0.25825    0.96628    0.65833    1.000
    O63      O        0.33031    0.06181    0.55063    1.000
    O64      O        0.37700    0.03306    0.69333    1.000
    N22      N        0.49778    0.88893    0.20263    1.000
    N23      N        0.49063    0.00073    0.18443    1.000
    N24      N        0.60441    0.08251    0.27463    1.000
    C29      C        0.43757    0.88603    0.16373    1.000
    C30      C        0.45467    0.94833    0.11313    1.000
    C31      C        0.52417    0.06853    0.15023    1.000
    C32      C        0.56397    0.10963    0.23703    1.000
    H92      H        0.51607    0.87773    0.15353    1.000
    H93      H        0.48687    0.86083    0.25393    1.000
    H94      H        0.46467    0.00533    0.22723    1.000
    H95      H        0.64147    0.09793    0.24953    1.000
    H96      H        0.61167    0.09633    0.33843    1.000
    H97      H        0.40727    0.88043    0.22243    1.000
    H98      H        0.42067    0.84933    0.12113    1.000
    H99      H        0.48217    0.95493    0.05693    1.000
    H100     H        0.41437    0.94343    0.07943    1.000
    H101     H        0.55987    0.07873    0.09763    1.000
    H102     H        0.48877    0.07523    0.12893    1.000
    H103     H        0.59357    0.15293    0.20743    1.000
    H104     H        0.53587    0.10533    0.29513    1.000
    Ga15     Ga       0.60069    0.02706    0.54669    1.000
    Ga16     Ga       0.31686    0.09056    0.41791    1.000
    Co9      Co       0.06597    0.30628    0.78665    1.000
    Cr9      Cr       0.22629    0.31686    0.58209    1.000
    P17      P        0.15076    0.24791    0.78616    1.000
    P18      P        0.99348    0.33986    0.94379    1.000
    O65      O        0.17632    0.29948    0.70407    1.000
    O66      O        0.08677    0.24433    0.82307    1.000
    O67      O        0.20129    0.27517    0.87317    1.000
    O68      O        0.13888    0.18253    0.75597    1.000
    O69      O        0.00252    0.29136    0.87827    1.000
    O70      O        0.92491    0.29962    0.99167    1.000
    O71      O        0.99697    0.39515    0.88397    1.000
    O72      O        0.04366    0.36640    0.02667    1.000
    N25      N        0.16444    0.22227    0.53597    1.000
    N26      N        0.15729    0.33407    0.51777    1.000
    N27      N        0.27107    0.41585    0.60797    1.000
    C33      C        0.10423    0.21937    0.49707    1.000
    C34      C        0.12133    0.28167    0.44647    1.000
    C35      C        0.19083    0.40187    0.48357    1.000
    C36      C        0.23063    0.44297    0.57037    1.000
    H105     H        0.18273    0.21107    0.48687    1.000
    H106     H        0.15353    0.19417    0.58727    1.000
    H107     H        0.13133    0.33867    0.56057    1.000
    H108     H        0.30813    0.43127    0.58287    1.000
    H109     H        0.27833    0.42967    0.67177    1.000
    H110     H        0.07393    0.21377    0.55577    1.000
    H111     H        0.08733    0.18267    0.45447    1.000
    H112     H        0.14883    0.28827    0.39027    1.000
    H113     H        0.08103    0.27677    0.41277    1.000
    H114     H        0.22653    0.41207    0.43097    1.000
    H115     H        0.15543    0.40857    0.46227    1.000
    H116     H        0.26023    0.48627    0.54077    1.000
    H117     H        0.20253    0.43867    0.62847    1.000
    Ga17     Ga       0.26736    0.36039    0.88002    1.000
    Ga18     Ga       0.98352    0.42390    0.75125    1.000
    P19      P        0.58124    0.76381    0.88051    1.000
    P20      P        0.67319    0.01304    0.72288    1.000
    O73      O        0.63281    0.78982    0.96260    1.000
    O74      O        0.57766    0.82422    0.84360    1.000
    O75      O        0.60850    0.74054    0.79350    1.000
    O76      O        0.51586    0.71031    0.91070    1.000
    O77      O        0.62469    0.95550    0.78840    1.000
    O78      O        0.63295    0.04137    0.67500    1.000
    O79      O        0.72848    0.06484    0.78270    1.000
    O80      O        0.69973    0.98940    0.64000    1.000
    N28      N        0.55560    0.72449    0.13070    1.000
    N29      N        0.66740    0.84344    0.14890    1.000
    N30      N        0.74918    0.81144    0.05870    1.000
    C37      C        0.55270    0.78180    0.16960    1.000
    C38      C        0.61500    0.82700    0.22020    1.000
    C39      C        0.73520    0.87770    0.18310    1.000
    C40      C        0.77630    0.87900    0.09630    1.000
    H118     H        0.54440    0.69500    0.17980    1.000
    H119     H        0.52750    0.70730    0.07940    1.000
    H120     H        0.67200    0.87400    0.10610    1.000
    H121     H        0.76460    0.78980    0.08380    1.000
    H122     H        0.76300    0.81800    0.99490    1.000
    H123     H        0.54710    0.80650    0.11090    1.000
    H124     H        0.51600    0.76200    0.21220    1.000
    H125     H        0.62160    0.80610    0.27640    1.000
    H126     H        0.61010    0.86240    0.25390    1.000
    H127     H        0.74540    0.85220    0.23570    1.000
    H128     H        0.74190    0.91980    0.20440    1.000
    H129     H        0.81960    0.89270    0.12590    1.000
    H130     H        0.77200    0.90280    0.03820    1.000
    P21      P        0.24791    0.09714    0.21384    1.000
    P22      P        0.33986    0.34637    0.05621    1.000
    O81      O        0.29948    0.12315    0.29593    1.000
    O82      O        0.24433    0.15755    0.17693    1.000
    O83      O        0.27517    0.07387    0.12683    1.000
    O84      O        0.18253    0.04364    0.24403    1.000
    O85      O        0.29136    0.28883    0.12173    1.000
    O86      O        0.29962    0.37470    0.00833    1.000
    O87      O        0.39515    0.39817    0.11603    1.000
    O88      O        0.36640    0.32273    0.97333    1.000
    N31      N        0.22227    0.05782    0.46403    1.000
    N32      N        0.33407    0.17677    0.48223    1.000
    N33      N        0.41585    0.14477    0.39203    1.000
    C41      C        0.21937    0.11513    0.50293    1.000
    C42      C        0.28167    0.16033    0.55353    1.000
    C43      C        0.40187    0.21103    0.51643    1.000
    C44      C        0.44297    0.21233    0.42963    1.000
    H131     H        0.21107    0.02833    0.51313    1.000
    H132     H        0.19417    0.04063    0.41273    1.000
    H133     H        0.33867    0.20733    0.43943    1.000
    H134     H        0.43127    0.12313    0.41713    1.000
    H135     H        0.42967    0.15133    0.32823    1.000
    H136     H        0.21377    0.13983    0.44423    1.000
    H137     H        0.18267    0.09533    0.54553    1.000
    H138     H        0.28827    0.13943    0.60973    1.000
    H139     H        0.27677    0.19573    0.58723    1.000
    H140     H        0.41207    0.18553    0.56903    1.000
    H141     H        0.40857    0.25313    0.53773    1.000
    H142     H        0.48627    0.22603    0.45923    1.000
    H143     H        0.43867    0.23613    0.37153    1.000
    P23      P        0.91457    0.43048    0.54718    1.000
    P24      P        0.00652    0.67971    0.38955    1.000
    O89      O        0.96614    0.45649    0.62927    1.000
    O90      O        0.91099    0.49089    0.51027    1.000
    O91      O        0.94183    0.40721    0.46017    1.000
    O92      O        0.84919    0.37698    0.57737    1.000
    O93      O        0.95802    0.62217    0.45507    1.000
    O94      O        0.96628    0.70804    0.34167    1.000
    O95      O        0.06181    0.73151    0.44937    1.000
    O96      O        0.03306    0.65607    0.30667    1.000
    N34      N        0.88893    0.39116    0.79737    1.000
    N35      N        0.00073    0.51011    0.81557    1.000
    N36      N        0.08251    0.47811    0.72537    1.000
    C45      C        0.88603    0.44847    0.83627    1.000
    C46      C        0.94833    0.49367    0.88687    1.000
    C47      C        0.06853    0.54437    0.84977    1.000
    C48      C        0.10963    0.54567    0.76297    1.000
    H144     H        0.87773    0.36167    0.84647    1.000
    H145     H        0.86083    0.37397    0.74607    1.000
    H146     H        0.00533    0.54067    0.77277    1.000
    H147     H        0.09793    0.45647    0.75047    1.000
    H148     H        0.09633    0.48467    0.66157    1.000
    H149     H        0.88043    0.47317    0.77757    1.000
    H150     H        0.84933    0.42867    0.87887    1.000
    H151     H        0.95493    0.47277    0.94307    1.000
    H152     H        0.94343    0.52907    0.92057    1.000
    H153     H        0.07873    0.51887    0.90237    1.000
    H154     H        0.07523    0.58647    0.87107    1.000
    H155     H        0.15293    0.55937    0.79257    1.000
    H156     H        0.10533    0.56947    0.70487    1.000
    P25      P        0.23619    0.81743    0.88051    1.000
    P26      P        0.98696    0.66015    0.72288    1.000
    O97      O        0.21018    0.84299    0.96260    1.000
    O98      O        0.17578    0.75344    0.84360    1.000
    O99      O        0.25946    0.86796    0.79350    1.000
    O100     O        0.28969    0.80555    0.91070    1.000
    O101     O        0.04450    0.66919    0.78840    1.000
    O102     O        0.95863    0.59158    0.67500    1.000
    O103     O        0.93516    0.66364    0.78270    1.000
    O104     O        0.01060    0.71033    0.64000    1.000
    N37      N        0.27551    0.83111    0.13070    1.000
    N38      N        0.15656    0.82396    0.14890    1.000
    N39      N        0.18856    0.93774    0.05870    1.000
    C49      C        0.21820    0.77090    0.16960    1.000
    C50      C        0.17300    0.78800    0.22020    1.000
    C51      C        0.12230    0.85750    0.18310    1.000
    C52      C        0.12100    0.89730    0.09630    1.000
    H157     H        0.30500    0.84940    0.17980    1.000
    H158     H        0.29270    0.82020    0.07940    1.000
    H159     H        0.12600    0.79800    0.10610    1.000
    H160     H        0.21020    0.97480    0.08380    1.000
    H161     H        0.18200    0.94500    0.99490    1.000
    H162     H        0.19350    0.74060    0.11090    1.000
    H163     H        0.23800    0.75400    0.21220    1.000
    H164     H        0.19390    0.81550    0.27640    1.000
    H165     H        0.13760    0.74770    0.25390    1.000
    H166     H        0.14780    0.89320    0.23570    1.000
    H167     H        0.08020    0.82210    0.20440    1.000
    H168     H        0.10730    0.92690    0.12590    1.000
    H169     H        0.09720    0.86920    0.03820    1.000
    P27      P        0.90286    0.15076    0.21384    1.000
    P28      P        0.65363    0.99348    0.05621    1.000
    O105     O        0.87685    0.17632    0.29593    1.000
    O106     O        0.84245    0.08677    0.17693    1.000
    O107     O        0.92613    0.20129    0.12683    1.000
    O108     O        0.95636    0.13888    0.24403    1.000
    O109     O        0.71117    0.00252    0.12173    1.000
    O110     O        0.62530    0.92491    0.00833    1.000
    O111     O        0.60183    0.99697    0.11603    1.000
    O112     O        0.67727    0.04366    0.97333    1.000
    N40      N        0.94218    0.16444    0.46403    1.000
    N41      N        0.82323    0.15729    0.48223    1.000
    N42      N        0.85523    0.27107    0.39203    1.000
    C53      C        0.88487    0.10423    0.50293    1.000
    C54      C        0.83967    0.12133    0.55353    1.000
    C55      C        0.78897    0.19083    0.51643    1.000
    C56      C        0.78767    0.23063    0.42963    1.000
    H170     H        0.97167    0.18273    0.51313    1.000
    H171     H        0.95937    0.15353    0.41273    1.000
    H172     H        0.79267    0.13133    0.43943    1.000
    H173     H        0.87687    0.30813    0.41713    1.000
    H174     H        0.84867    0.27833    0.32823    1.000
    H175     H        0.86017    0.07393    0.44423    1.000
    H176     H        0.90467    0.08733    0.54553    1.000
    H177     H        0.86057    0.14883    0.60973    1.000
    H178     H        0.80427    0.08103    0.58723    1.000
    H179     H        0.81447    0.22653    0.56903    1.000
    H180     H        0.74687    0.15543    0.53773    1.000
    H181     H        0.77397    0.26023    0.45923    1.000
    H182     H        0.76387    0.20253    0.37153    1.000
    P29      P        0.56952    0.48410    0.54718    1.000
    P30      P        0.32029    0.32682    0.38955    1.000
    O113     O        0.54351    0.50966    0.62927    1.000
    O114     O        0.50911    0.42011    0.51027    1.000
    O115     O        0.59279    0.53463    0.46017    1.000
    O116     O        0.62302    0.47222    0.57737    1.000
    O117     O        0.37783    0.33586    0.45507    1.000
    O118     O        0.29196    0.25825    0.34167    1.000
    O119     O        0.26849    0.33031    0.44937    1.000
    O120     O        0.34393    0.37700    0.30667    1.000
    N43      N        0.60884    0.49778    0.79737    1.000
    N44      N        0.48989    0.49063    0.81557    1.000
    N45      N        0.52189    0.60441    0.72537    1.000
    C57      C        0.55153    0.43757    0.83627    1.000
    C58      C        0.50633    0.45467    0.88687    1.000
    C59      C        0.45563    0.52417    0.84977    1.000
    C60      C        0.45433    0.56397    0.76297    1.000
    H183     H        0.63833    0.51607    0.84647    1.000
    H184     H        0.62603    0.48687    0.74607    1.000
    H185     H        0.45933    0.46467    0.77277    1.000
    H186     H        0.54353    0.64147    0.75047    1.000
    H187     H        0.51533    0.61167    0.66157    1.000
    H188     H        0.52683    0.40727    0.77757    1.000
    H189     H        0.57133    0.42067    0.87887    1.000
    H190     H        0.52723    0.48217    0.94307    1.000
    H191     H        0.47093    0.41437    0.92057    1.000
    H192     H        0.48113    0.55987    0.90237    1.000
    H193     H        0.41353    0.48877    0.87107    1.000
    H194     H        0.44063    0.59357    0.79257    1.000
    H195     H        0.43053    0.53587    0.70487    1.000
    P31      P        0.18257    0.41876    0.88051    1.000
    P32      P        0.33985    0.32681    0.72288    1.000
    O121     O        0.15701    0.36719    0.96260    1.000
    O122     O        0.24656    0.42234    0.84360    1.000
    O123     O        0.13204    0.39150    0.79350    1.000
    O124     O        0.19445    0.48414    0.91070    1.000
    O125     O        0.33081    0.37531    0.78840    1.000
    O126     O        0.40842    0.36705    0.67500    1.000
    O127     O        0.33636    0.27152    0.78270    1.000
    O128     O        0.28967    0.30027    0.64000    1.000
    N46      N        0.16889    0.44440    0.13070    1.000
    N47      N        0.17604    0.33260    0.14890    1.000
    N48      N        0.06226    0.25082    0.05870    1.000
    C61      C        0.22910    0.44730    0.16960    1.000
    C62      C        0.21200    0.38500    0.22020    1.000
    C63      C        0.14250    0.26480    0.18310    1.000
    C64      C        0.10270    0.22370    0.09630    1.000
    H196     H        0.15060    0.45560    0.17980    1.000
    H197     H        0.17980    0.47250    0.07940    1.000
    H198     H        0.20200    0.32800    0.10610    1.000
    H199     H        0.02520    0.23540    0.08380    1.000
    H200     H        0.05500    0.23700    0.99490    1.000
    H201     H        0.25940    0.45290    0.11090    1.000
    H202     H        0.24600    0.48400    0.21220    1.000
    H203     H        0.18450    0.37840    0.27640    1.000
    H204     H        0.25230    0.38990    0.25390    1.000
    H205     H        0.10680    0.25460    0.23570    1.000
    H206     H        0.17790    0.25810    0.20440    1.000
    H207     H        0.07310    0.18040    0.12590    1.000
    H208     H        0.13080    0.22800    0.03820    1.000
    P33      P        0.84924    0.75209    0.21384    1.000
    P34      P        0.00652    0.66014    0.05621    1.000
    O129     O        0.82368    0.70052    0.29593    1.000
    O130     O        0.91323    0.75567    0.17693    1.000
    O131     O        0.79871    0.72483    0.12683    1.000
    O132     O        0.86112    0.81747    0.24403    1.000
    O133     O        0.99748    0.70864    0.12173    1.000
    O134     O        0.07509    0.70038    0.00833    1.000
    O135     O        0.00303    0.60485    0.11603    1.000
    O136     O        0.95634    0.63360    0.97333    1.000
    N49      N        0.83556    0.77773    0.46403    1.000
    N50      N        0.84271    0.66593    0.48223    1.000
    N51      N        0.72893    0.58415    0.39203    1.000
    C65      C        0.89577    0.78063    0.50293    1.000
    C66      C        0.87867    0.71833    0.55353    1.000
    C67      C        0.80917    0.59813    0.51643    1.000
    C68      C        0.76937    0.55703    0.42963    1.000
    H209     H        0.81727    0.78893    0.51313    1.000
    H210     H        0.84647    0.80583    0.41273    1.000
    H211     H        0.86867    0.66133    0.43943    1.000
    H212     H        0.69187    0.56873    0.41713    1.000
    H213     H        0.72167    0.57033    0.32823    1.000
    H214     H        0.92607    0.78623    0.44423    1.000
    H215     H        0.91267    0.81733    0.54553    1.000
    H216     H        0.85117    0.71173    0.60973    1.000
    H217     H        0.91897    0.72323    0.58723    1.000
    H218     H        0.77347    0.58793    0.56903    1.000
    H219     H        0.84457    0.59143    0.53773    1.000
    H220     H        0.73977    0.51373    0.45923    1.000
    H221     H        0.79747    0.56133    0.37153    1.000
    P35      P        0.51590    0.08543    0.54718    1.000
    P36      P        0.67318    0.99348    0.38955    1.000
    O137     O        0.49034    0.03386    0.62927    1.000
    O138     O        0.57989    0.08901    0.51027    1.000
    O139     O        0.46537    0.05817    0.46017    1.000
    O140     O        0.52778    0.15081    0.57737    1.000
    O141     O        0.66414    0.04198    0.45507    1.000
    O142     O        0.74175    0.03372    0.34167    1.000
    O143     O        0.66969    0.93819    0.44937    1.000
    O144     O        0.62300    0.96694    0.30667    1.000
    N52      N        0.50222    0.11107    0.79737    1.000
    N53      N        0.50937    0.99927    0.81557    1.000
    N54      N        0.39559    0.91749    0.72537    1.000
    C69      C        0.56243    0.11397    0.83627    1.000
    C70      C        0.54533    0.05167    0.88687    1.000
    C71      C        0.47583    0.93147    0.84977    1.000
    C72      C        0.43603    0.89037    0.76297    1.000
    H222     H        0.48393    0.12227    0.84647    1.000
    H223     H        0.51313    0.13917    0.74607    1.000
    H224     H        0.53533    0.99467    0.77277    1.000
    H225     H        0.35853    0.90207    0.75047    1.000
    H226     H        0.38833    0.90367    0.66157    1.000
    H227     H        0.59273    0.11957    0.77757    1.000
    H228     H        0.57933    0.15067    0.87887    1.000
    H229     H        0.51783    0.04507    0.94307    1.000
    H230     H        0.58563    0.05657    0.92057    1.000
    H231     H        0.44013    0.92127    0.90237    1.000
    H232     H        0.51123    0.92477    0.87107    1.000
    H233     H        0.40643    0.84707    0.79257    1.000
    H234     H        0.46413    0.89467    0.70487    1.000
