# CIF file generated by openbabel 3.1.0, see https://openbabel.org
data_I
_chemical_name_common 'ILIGAL_clean'
_cell_length_a 8.9084
_cell_length_b 10.2182
_cell_length_c 10.2182
_cell_angle_alpha 120
_cell_angle_beta 90
_cell_angle_gamma 90
_space_group_name_H-M_alt 'P 1'
_space_group_name_Hall 'P 1'
loop_
    _symmetry_equiv_pos_as_xyz
    x,y,z
loop_
    _atom_site_label
    _atom_site_type_symbol
    _atom_site_fract_x
    _atom_site_fract_y
    _atom_site_fract_z
    _atom_site_occupancy
    Pr1      Pr       0.94804    0.33333    0.66666    1.000
    Pr2      Pr       0.05196    0.66667    0.33334    1.000
    H1       H        0.56300    0.48210    0.36480    1.000
    H2       H        0.72200    0.63180    0.57270    1.000
    H3       H        0.56300    0.88270    0.51790    1.000
    H4       H        0.72200    0.94090    0.36820    1.000
    H5       H        0.56300    0.63520    0.11730    1.000
    H6       H        0.72200    0.42730    0.05910    1.000
    H7       H        0.43700    0.51790    0.63520    1.000
    H8       H        0.27800    0.36820    0.42730    1.000
    H9       H        0.43700    0.11730    0.48210    1.000
    H10      H        0.27800    0.05910    0.63180    1.000
    H11      H        0.43700    0.36480    0.88270    1.000
    H12      H        0.27800    0.57270    0.94090    1.000
    C1       C        0.56730    0.46270    0.44940    1.000
    C2       C        0.84490    0.44580    0.42080    1.000
    C3       C        0.71660    0.52230    0.53130    1.000
    C4       C        0.56730    0.98670    0.53730    1.000
    C5       C        0.84490    0.97500    0.55420    1.000
    C6       C        0.71660    0.00900    0.47770    1.000
    C7       C        0.56730    0.55060    0.01330    1.000
    C8       C        0.84490    0.57920    0.02500    1.000
    C9       C        0.71660    0.46870    0.99100    1.000
    C10      C        0.43270    0.53730    0.55060    1.000
    C11      C        0.15510    0.55420    0.57920    1.000
    C12      C        0.28340    0.47770    0.46870    1.000
    C13      C        0.43270    0.01330    0.46270    1.000
    C14      C        0.15510    0.02500    0.44580    1.000
    C15      C        0.28340    0.99100    0.52230    1.000
    C16      C        0.43270    0.44940    0.98670    1.000
    C17      C        0.15510    0.42080    0.97500    1.000
    C18      C        0.28340    0.53130    0.00900    1.000
    O1       O        0.56050    0.30240    0.38990    1.000
    O2       O        0.92260    0.34990    0.43410    1.000
    O3       O        0.86710    0.48220    0.32250    1.000
    O4       O        0.73530    0.48830    0.65080    1.000
    O5       O        0.56050    0.08750    0.69760    1.000
    O6       O        0.92260    0.08420    0.65010    1.000
    O7       O        0.86710    0.84030    0.51780    1.000
    O8       O        0.73530    0.16250    0.51170    1.000
    O9       O        0.56050    0.61010    0.91250    1.000
    O10      O        0.92260    0.56590    0.91580    1.000
    O11      O        0.86710    0.67750    0.15970    1.000
    O12      O        0.73530    0.34920    0.83750    1.000
    O13      O        0.43950    0.69760    0.61010    1.000
    O14      O        0.07740    0.65010    0.56590    1.000
    O15      O        0.13290    0.51780    0.67750    1.000
    O16      O        0.26470    0.51170    0.34920    1.000
    O17      O        0.43950    0.91250    0.30240    1.000
    O18      O        0.07740    0.91580    0.34990    1.000
    O19      O        0.13290    0.15970    0.48220    1.000
    O20      O        0.26470    0.83750    0.48830    1.000
    O21      O        0.43950    0.38990    0.08750    1.000
    O22      O        0.07740    0.43410    0.08420    1.000
    O23      O        0.13290    0.32250    0.84030    1.000
    O24      O        0.26470    0.65080    0.16250    1.000
