# CIF file generated by openbabel 3.1.0, see https://openbabel.org
data_I
_chemical_name_common 'image0'
_cell_length_a 17.3514
_cell_length_b 9.5075
_cell_length_c 9.8065
_cell_angle_alpha 90
_cell_angle_beta 102.682
_cell_angle_gamma 90
_space_group_name_H-M_alt 'P 1'
_space_group_name_Hall 'P 1'
loop_
    _symmetry_equiv_pos_as_xyz
    x,y,z
loop_
    _atom_site_label
    _atom_site_type_symbol
    _atom_site_fract_x
    _atom_site_fract_y
    _atom_site_fract_z
    _atom_site_occupancy
    Zn1      Zn       0.17892    0.07950    0.37523    1.000
    P1       P        0.31043    0.32213    0.31876    1.000
    O1       O        0.25060    0.20870    0.31930    1.000
    O2       O        0.31310    0.43810    0.42650    1.000
    O3       O        0.29700    0.38580    0.17180    1.000
    O4       O        0.07412    0.13510    0.26530    1.000
    O5       O        0.39360    0.24510    0.34990    1.000
    H1       H        0.42870    0.30310    0.35080    1.000
    O6       O        0.99110    0.94570    0.12040    1.000
    H2       H        0.03070    0.89680    0.12830    1.000
    Zn2      Zn       0.67892    0.57950    0.37523    1.000
    P2       P        0.81043    0.82213    0.31876    1.000
    O7       O        0.75060    0.70870    0.31930    1.000
    O8       O        0.81310    0.93810    0.42650    1.000
    O9       O        0.79700    0.88580    0.17180    1.000
    O10      O        0.57412    0.63510    0.26530    1.000
    O11      O        0.89360    0.74510    0.34990    1.000
    H3       H        0.92870    0.80310    0.35080    1.000
    O12      O        0.49110    0.44570    0.12040    1.000
    H4       H        0.53070    0.39680    0.12830    1.000
    Zn3      Zn       0.82108    0.07950    0.12477    1.000
    P3       P        0.68957    0.32213    0.18124    1.000
    O13      O        0.74940    0.20870    0.18070    1.000
    O14      O        0.68690    0.43810    0.07350    1.000
    O15      O        0.70300    0.38580    0.32820    1.000
    O16      O        0.92588    0.13510    0.23470    1.000
    O17      O        0.60640    0.24510    0.15010    1.000
    H5       H        0.57130    0.30310    0.14920    1.000
    O18      O        0.00890    0.94570    0.37960    1.000
    H6       H        0.96930    0.89680    0.37170    1.000
    Zn4      Zn       0.32108    0.57950    0.12477    1.000
    P4       P        0.18957    0.82213    0.18124    1.000
    O19      O        0.24940    0.70870    0.18070    1.000
    O20      O        0.18690    0.93810    0.07350    1.000
    O21      O        0.20300    0.88580    0.32820    1.000
    O22      O        0.42588    0.63510    0.23470    1.000
    O23      O        0.10640    0.74510    0.15010    1.000
    H7       H        0.07130    0.80310    0.14920    1.000
    O24      O        0.50890    0.44570    0.37960    1.000
    H8       H        0.46930    0.39680    0.37170    1.000
    Zn5      Zn       0.82108    0.92050    0.62477    1.000
    P5       P        0.68957    0.67787    0.68124    1.000
    O25      O        0.74940    0.79130    0.68070    1.000
    O26      O        0.68690    0.56190    0.57350    1.000
    O27      O        0.70300    0.61420    0.82820    1.000
    O28      O        0.92588    0.86490    0.73470    1.000
    O29      O        0.60640    0.75490    0.65010    1.000
    H9       H        0.57130    0.69690    0.64920    1.000
    O30      O        0.00890    0.05430    0.87960    1.000
    H10      H        0.96930    0.10320    0.87170    1.000
    Zn6      Zn       0.32108    0.42050    0.62477    1.000
    P6       P        0.18957    0.17787    0.68124    1.000
    O31      O        0.24940    0.29130    0.68070    1.000
    O32      O        0.18690    0.06190    0.57350    1.000
    O33      O        0.20300    0.11420    0.82820    1.000
    O34      O        0.42588    0.36490    0.73470    1.000
    O35      O        0.10640    0.25490    0.65010    1.000
    H11      H        0.07130    0.19690    0.64920    1.000
    O36      O        0.50890    0.55430    0.87960    1.000
    H12      H        0.46930    0.60320    0.87170    1.000
    Zn7      Zn       0.17892    0.92050    0.87523    1.000
    P7       P        0.31043    0.67787    0.81876    1.000
    O37      O        0.25060    0.79130    0.81930    1.000
    O38      O        0.31310    0.56190    0.92650    1.000
    O39      O        0.29700    0.61420    0.67180    1.000
    O40      O        0.07412    0.86490    0.76530    1.000
    O41      O        0.39360    0.75490    0.84990    1.000
    H13      H        0.42870    0.69690    0.85080    1.000
    O42      O        0.99110    0.05430    0.62040    1.000
    H14      H        0.03070    0.10320    0.62830    1.000
    Zn8      Zn       0.67892    0.42050    0.87523    1.000
    P8       P        0.81043    0.17787    0.81876    1.000
    O43      O        0.75060    0.29130    0.81930    1.000
    O44      O        0.81310    0.06190    0.92650    1.000
    O45      O        0.79700    0.11420    0.67180    1.000
    O46      O        0.57412    0.36490    0.76530    1.000
    O47      O        0.89360    0.25490    0.84990    1.000
    H15      H        0.92870    0.19690    0.85080    1.000
    O48      O        0.49110    0.55430    0.62040    1.000
    H16      H        0.53070    0.60320    0.62830    1.000
    P9       P        0.00000    0.04456    0.25000    1.000
    P10      P        0.50000    0.54456    0.25000    1.000
    P11      P        0.00000    0.95544    0.75000    1.000
    P12      P        0.50000    0.45544    0.75000    1.000
