# CIF file generated by openbabel 3.1.0, see https://openbabel.org
data_I
_chemical_name_common 'BINCUY_clean_b'
_cell_length_a 22.249
_cell_length_b 22.249
_cell_length_c 22.249
_cell_angle_alpha 90
_cell_angle_beta 90
_cell_angle_gamma 90
_space_group_name_H-M_alt 'P 1'
_space_group_name_Hall 'P 1'
loop_
    _symmetry_equiv_pos_as_xyz
    x,y,z
loop_
    _atom_site_label
    _atom_site_type_symbol
    _atom_site_fract_x
    _atom_site_fract_y
    _atom_site_fract_z
    _atom_site_occupancy
    H1       H        0.35156    0.85922    0.20001    1.000
    C2       C        0.28146    0.05100    0.87376    1.000
    H3       H        0.26275    0.02930    0.83128    1.000
    C4       C        0.32975    0.02541    0.90292    1.000
    H5       H        0.35273    0.98414    0.88307    1.000
    H6       H        0.64844    0.14078    0.20001    1.000
    C7       C        0.71854    0.94900    0.87376    1.000
    H8       H        0.73725    0.97070    0.83128    1.000
    C9       C        0.67025    0.97459    0.90292    1.000
    H10      H        0.64727    0.01586    0.88307    1.000
    H11      H        0.64844    0.85922    0.79999    1.000
    C12      C        0.71854    0.05100    0.12624    1.000
    H13      H        0.73725    0.02930    0.16872    1.000
    C14      C        0.67025    0.02541    0.09708    1.000
    H15      H        0.64727    0.98414    0.11693    1.000
    H16      H        0.35156    0.14078    0.79999    1.000
    C17      C        0.28146    0.94900    0.12624    1.000
    H18      H        0.26275    0.97070    0.16872    1.000
    C19      C        0.32975    0.97459    0.09708    1.000
    H20      H        0.35273    0.01586    0.11693    1.000
    H21      H        0.20001    0.35156    0.85922    1.000
    C22      C        0.87376    0.28146    0.05100    1.000
    H23      H        0.83128    0.26275    0.02930    1.000
    C24      C        0.90292    0.32975    0.02541    1.000
    H25      H        0.88307    0.35273    0.98414    1.000
    H26      H        0.20001    0.64844    0.14078    1.000
    C27      C        0.87376    0.71854    0.94900    1.000
    H28      H        0.83128    0.73725    0.97070    1.000
    C29      C        0.90292    0.67025    0.97459    1.000
    H30      H        0.88307    0.64727    0.01586    1.000
    H31      H        0.79999    0.64844    0.85922    1.000
    C32      C        0.12624    0.71854    0.05100    1.000
    H33      H        0.16872    0.73725    0.02930    1.000
    C34      C        0.09708    0.67025    0.02541    1.000
    H35      H        0.11693    0.64727    0.98414    1.000
    H36      H        0.79999    0.35156    0.14078    1.000
    C37      C        0.12624    0.28146    0.94900    1.000
    H38      H        0.16872    0.26275    0.97070    1.000
    C39      C        0.09708    0.32975    0.97459    1.000
    H40      H        0.11693    0.35273    0.01586    1.000
    H41      H        0.85922    0.20001    0.35156    1.000
    C42      C        0.05100    0.87376    0.28146    1.000
    H43      H        0.02930    0.83128    0.26275    1.000
    C44      C        0.02541    0.90292    0.32975    1.000
    H45      H        0.98414    0.88307    0.35273    1.000
    H46      H        0.14078    0.20001    0.64844    1.000
    C47      C        0.94900    0.87376    0.71854    1.000
    H48      H        0.97070    0.83128    0.73725    1.000
    C49      C        0.97459    0.90292    0.67025    1.000
    H50      H        0.01586    0.88307    0.64727    1.000
    H51      H        0.85922    0.79999    0.64844    1.000
    C52      C        0.05100    0.12624    0.71854    1.000
    H53      H        0.02930    0.16872    0.73725    1.000
    C54      C        0.02541    0.09708    0.67025    1.000
    H55      H        0.98414    0.11693    0.64727    1.000
    H56      H        0.14078    0.79999    0.35156    1.000
    C57      C        0.94900    0.12624    0.28146    1.000
    H58      H        0.97070    0.16872    0.26275    1.000
    C59      C        0.97459    0.09708    0.32975    1.000
    H60      H        0.01586    0.11693    0.35273    1.000
    H61      H        0.85922    0.35143    0.19994    1.000
    C62      C        0.05100    0.28146    0.87376    1.000
    H63      H        0.02930    0.26275    0.83128    1.000
    C64      C        0.02541    0.32975    0.90292    1.000
    H65      H        0.98414    0.35273    0.88307    1.000
    H66      H        0.14078    0.64857    0.19994    1.000
    C67      C        0.94900    0.71854    0.87376    1.000
    H68      H        0.97070    0.73725    0.83128    1.000
    C69      C        0.97459    0.67025    0.90292    1.000
    H70      H        0.01586    0.64727    0.88307    1.000
    H71      H        0.85922    0.64857    0.80006    1.000
    C72      C        0.05100    0.71854    0.12624    1.000
    H73      H        0.02930    0.73725    0.16872    1.000
    C74      C        0.02541    0.67025    0.09708    1.000
    H75      H        0.98414    0.64727    0.11693    1.000
    H76      H        0.14078    0.35143    0.80006    1.000
    C77      C        0.94900    0.28146    0.12624    1.000
    H78      H        0.97070    0.26275    0.16872    1.000
    C79      C        0.97459    0.32975    0.09708    1.000
    H80      H        0.01586    0.35273    0.11693    1.000
    H81      H        0.35143    0.19994    0.85922    1.000
    C82      C        0.28146    0.87376    0.05100    1.000
    H83      H        0.26275    0.83128    0.02930    1.000
    C84      C        0.32975    0.90292    0.02541    1.000
    H85      H        0.35273    0.88307    0.98414    1.000
    H86      H        0.64857    0.19994    0.14078    1.000
    C87      C        0.71854    0.87376    0.94900    1.000
    H88      H        0.73725    0.83128    0.97070    1.000
    C89      C        0.67025    0.90292    0.97459    1.000
    H90      H        0.64727    0.88307    0.01586    1.000
    H91      H        0.64857    0.80006    0.85922    1.000
    C92      C        0.71854    0.12624    0.05100    1.000
    H93      H        0.73725    0.16872    0.02930    1.000
    C94      C        0.67025    0.09708    0.02541    1.000
    H95      H        0.64727    0.11693    0.98414    1.000
    H96      H        0.35143    0.80006    0.14078    1.000
    C97      C        0.28146    0.12624    0.94900    1.000
    H98      H        0.26275    0.16872    0.97070    1.000
    C99      C        0.32975    0.09708    0.97459    1.000
    H100     H        0.35273    0.11693    0.01586    1.000
    H101     H        0.19994    0.85922    0.35143    1.000
    C102     C        0.87376    0.05100    0.28146    1.000
    H103     H        0.83128    0.02930    0.26275    1.000
    C104     C        0.90292    0.02541    0.32975    1.000
    H105     H        0.88307    0.98414    0.35273    1.000
    H106     H        0.19994    0.14078    0.64857    1.000
    C107     C        0.87376    0.94900    0.71854    1.000
    H108     H        0.83128    0.97070    0.73725    1.000
    C109     C        0.90292    0.97459    0.67025    1.000
    H110     H        0.88307    0.01586    0.64727    1.000
    H111     H        0.80006    0.85922    0.64857    1.000
    C112     C        0.12624    0.05100    0.71854    1.000
    H113     H        0.16872    0.02930    0.73725    1.000
    C114     C        0.09708    0.02541    0.67025    1.000
    H115     H        0.11693    0.98414    0.64727    1.000
    H116     H        0.80006    0.14078    0.35143    1.000
    C117     C        0.12624    0.94900    0.28146    1.000
    H118     H        0.16872    0.97070    0.26275    1.000
    C119     C        0.09708    0.97459    0.32975    1.000
    H120     H        0.11693    0.01586    0.35273    1.000
    Co121    Co       0.42427    0.00000    0.00000    1.000
    Co122    Co       0.57573    0.00000    0.00000    1.000
    Co123    Co       0.00000    0.42427    0.00000    1.000
    Co124    Co       0.00000    0.57573    0.00000    1.000
    Co125    Co       0.00000    0.00000    0.42427    1.000
    Co126    Co       0.00000    0.00000    0.57573    1.000
    O127     O        0.47221    0.93802    0.06198    1.000
    N128     N        0.35129    0.04645    0.95355    1.000
    C129     C        0.29745    0.77881    0.22119    1.000
    O130     O        0.40615    0.78367    0.21633    1.000
    C131     C        0.20282    0.13112    0.86888    1.000
    O132     O        0.57315    0.93571    0.06429    1.000
    C133     C        0.52122    0.91872    0.08128    1.000
    C134     C        0.35259    0.80874    0.19126    1.000
    C135     C        0.25606    0.10329    0.89671    1.000
    C136     C        0.51948    0.87026    0.12974    1.000
    C137     C        0.46313    0.85050    0.14950    1.000
    H138     H        0.42046    0.87056    0.12944    1.000
    C139     C        0.45912    0.80529    0.19471    1.000
    C140     C        0.51100    0.78230    0.21770    1.000
    H141     H        0.50914    0.74609    0.25391    1.000
    C142     C        0.56760    0.80229    0.19771    1.000
    H143     H        0.61035    0.78231    0.21769    1.000
    C144     C        0.57070    0.84620    0.15380    1.000
    H145     H        0.61659    0.86231    0.13769    1.000
    O146     O        0.52779    0.06198    0.06198    1.000
    N147     N        0.64871    0.95355    0.95355    1.000
    C148     C        0.70255    0.22119    0.22119    1.000
    O149     O        0.59385    0.21633    0.21633    1.000
    C150     C        0.79718    0.86888    0.86888    1.000
    O151     O        0.42685    0.06429    0.06429    1.000
    C152     C        0.47878    0.08128    0.08128    1.000
    C153     C        0.64741    0.19126    0.19126    1.000
    C154     C        0.74394    0.89671    0.89671    1.000
    C155     C        0.48052    0.12974    0.12974    1.000
    C156     C        0.53687    0.14950    0.14950    1.000
    H157     H        0.57954    0.12944    0.12944    1.000
    C158     C        0.54088    0.19471    0.19471    1.000
    C159     C        0.48900    0.21770    0.21770    1.000
    H160     H        0.49086    0.25391    0.25391    1.000
    C161     C        0.43240    0.19771    0.19771    1.000
    H162     H        0.38965    0.21769    0.21769    1.000
    C163     C        0.42930    0.15380    0.15380    1.000
    H164     H        0.38341    0.13769    0.13769    1.000
    O165     O        0.52779    0.93802    0.93802    1.000
    N166     N        0.64871    0.04645    0.04645    1.000
    C167     C        0.70255    0.77881    0.77881    1.000
    O168     O        0.59385    0.78367    0.78367    1.000
    C169     C        0.79718    0.13112    0.13112    1.000
    O170     O        0.42685    0.93571    0.93571    1.000
    C171     C        0.47878    0.91872    0.91872    1.000
    C172     C        0.64741    0.80874    0.80874    1.000
    C173     C        0.74394    0.10329    0.10329    1.000
    C174     C        0.48052    0.87026    0.87026    1.000
    C175     C        0.53687    0.85050    0.85050    1.000
    H176     H        0.57954    0.87056    0.87056    1.000
    C177     C        0.54088    0.80529    0.80529    1.000
    C178     C        0.48900    0.78230    0.78230    1.000
    H179     H        0.49086    0.74609    0.74609    1.000
    C180     C        0.43240    0.80229    0.80229    1.000
    H181     H        0.38965    0.78231    0.78231    1.000
    C182     C        0.42930    0.84620    0.84620    1.000
    H183     H        0.38341    0.86231    0.86231    1.000
    O184     O        0.47221    0.06198    0.93802    1.000
    N185     N        0.35129    0.95355    0.04645    1.000
    C186     C        0.29745    0.22119    0.77881    1.000
    O187     O        0.40615    0.21633    0.78367    1.000
    C188     C        0.20282    0.86888    0.13112    1.000
    O189     O        0.57315    0.06429    0.93571    1.000
    C190     C        0.52122    0.08128    0.91872    1.000
    C191     C        0.35259    0.19126    0.80874    1.000
    C192     C        0.25606    0.89671    0.10329    1.000
    C193     C        0.51948    0.12974    0.87026    1.000
    C194     C        0.46313    0.14950    0.85050    1.000
    H195     H        0.42046    0.12944    0.87056    1.000
    C196     C        0.45912    0.19471    0.80529    1.000
    C197     C        0.51100    0.21770    0.78230    1.000
    H198     H        0.50914    0.25391    0.74609    1.000
    C199     C        0.56760    0.19771    0.80229    1.000
    H200     H        0.61035    0.21769    0.78231    1.000
    C201     C        0.57070    0.15380    0.84620    1.000
    H202     H        0.61659    0.13769    0.86231    1.000
    O203     O        0.06198    0.47221    0.93802    1.000
    N204     N        0.95355    0.35129    0.04645    1.000
    C205     C        0.22119    0.29745    0.77881    1.000
    O206     O        0.21633    0.40615    0.78367    1.000
    C207     C        0.86888    0.20282    0.13112    1.000
    O208     O        0.06429    0.57315    0.93571    1.000
    C209     C        0.08128    0.52122    0.91872    1.000
    C210     C        0.19126    0.35259    0.80874    1.000
    C211     C        0.89671    0.25606    0.10329    1.000
    C212     C        0.12974    0.51948    0.87026    1.000
    C213     C        0.14950    0.46313    0.85050    1.000
    H214     H        0.12944    0.42046    0.87056    1.000
    C215     C        0.19471    0.45912    0.80529    1.000
    C216     C        0.21770    0.51100    0.78230    1.000
    H217     H        0.25391    0.50914    0.74609    1.000
    C218     C        0.19771    0.56760    0.80229    1.000
    H219     H        0.21769    0.61035    0.78231    1.000
    C220     C        0.15380    0.57070    0.84620    1.000
    H221     H        0.13769    0.61659    0.86231    1.000
    O222     O        0.06198    0.52779    0.06198    1.000
    N223     N        0.95355    0.64871    0.95355    1.000
    C224     C        0.22119    0.70255    0.22119    1.000
    O225     O        0.21633    0.59385    0.21633    1.000
    C226     C        0.86888    0.79718    0.86888    1.000
    O227     O        0.06429    0.42685    0.06429    1.000
    C228     C        0.08128    0.47878    0.08128    1.000
    C229     C        0.19126    0.64741    0.19126    1.000
    C230     C        0.89671    0.74394    0.89671    1.000
    C231     C        0.12974    0.48052    0.12974    1.000
    C232     C        0.14950    0.53687    0.14950    1.000
    H233     H        0.12944    0.57954    0.12944    1.000
    C234     C        0.19471    0.54088    0.19471    1.000
    C235     C        0.21770    0.48900    0.21770    1.000
    H236     H        0.25391    0.49086    0.25391    1.000
    C237     C        0.19771    0.43240    0.19771    1.000
    H238     H        0.21769    0.38965    0.21769    1.000
    C239     C        0.15380    0.42930    0.15380    1.000
    H240     H        0.13769    0.38341    0.13769    1.000
    O241     O        0.93802    0.52779    0.93802    1.000
    N242     N        0.04645    0.64871    0.04645    1.000
    C243     C        0.77881    0.70255    0.77881    1.000
    O244     O        0.78367    0.59385    0.78367    1.000
    C245     C        0.13112    0.79718    0.13112    1.000
    O246     O        0.93571    0.42685    0.93571    1.000
    C247     C        0.91872    0.47878    0.91872    1.000
    C248     C        0.80874    0.64741    0.80874    1.000
    C249     C        0.10329    0.74394    0.10329    1.000
    C250     C        0.87026    0.48052    0.87026    1.000
    C251     C        0.85050    0.53687    0.85050    1.000
    H252     H        0.87056    0.57954    0.87056    1.000
    C253     C        0.80529    0.54088    0.80529    1.000
    C254     C        0.78230    0.48900    0.78230    1.000
    H255     H        0.74609    0.49086    0.74609    1.000
    C256     C        0.80229    0.43240    0.80229    1.000
    H257     H        0.78231    0.38965    0.78231    1.000
    C258     C        0.84620    0.42930    0.84620    1.000
    H259     H        0.86231    0.38341    0.86231    1.000
    O260     O        0.93802    0.47221    0.06198    1.000
    N261     N        0.04645    0.35129    0.95355    1.000
    C262     C        0.77881    0.29745    0.22119    1.000
    O263     O        0.78367    0.40615    0.21633    1.000
    C264     C        0.13112    0.20282    0.86888    1.000
    O265     O        0.93571    0.57315    0.06429    1.000
    C266     C        0.91872    0.52122    0.08128    1.000
    C267     C        0.80874    0.35259    0.19126    1.000
    C268     C        0.10329    0.25606    0.89671    1.000
    C269     C        0.87026    0.51948    0.12974    1.000
    C270     C        0.85050    0.46313    0.14950    1.000
    H271     H        0.87056    0.42046    0.12944    1.000
    C272     C        0.80529    0.45912    0.19471    1.000
    C273     C        0.78230    0.51100    0.21770    1.000
    H274     H        0.74609    0.50914    0.25391    1.000
    C275     C        0.80229    0.56760    0.19771    1.000
    H276     H        0.78231    0.61035    0.21769    1.000
    C277     C        0.84620    0.57070    0.15380    1.000
    H278     H        0.86231    0.61659    0.13769    1.000
    O279     O        0.93802    0.06198    0.47221    1.000
    N280     N        0.04645    0.95355    0.35129    1.000
    C281     C        0.77881    0.22119    0.29745    1.000
    O282     O        0.78367    0.21633    0.40615    1.000
    C283     C        0.13112    0.86888    0.20282    1.000
    O284     O        0.93571    0.06429    0.57315    1.000
    C285     C        0.91872    0.08128    0.52122    1.000
    C286     C        0.80874    0.19126    0.35259    1.000
    C287     C        0.10329    0.89671    0.25606    1.000
    C288     C        0.87026    0.12974    0.51948    1.000
    C289     C        0.85050    0.14950    0.46313    1.000
    H290     H        0.87056    0.12944    0.42046    1.000
    C291     C        0.80529    0.19471    0.45912    1.000
    C292     C        0.78230    0.21770    0.51100    1.000
    H293     H        0.74609    0.25391    0.50914    1.000
    C294     C        0.80229    0.19771    0.56760    1.000
    H295     H        0.78231    0.21769    0.61035    1.000
    C296     C        0.84620    0.15380    0.57070    1.000
    H297     H        0.86231    0.13769    0.61659    1.000
    O298     O        0.06198    0.06198    0.52779    1.000
    N299     N        0.95355    0.95355    0.64871    1.000
    C300     C        0.22119    0.22119    0.70255    1.000
    O301     O        0.21633    0.21633    0.59385    1.000
    C302     C        0.86888    0.86888    0.79718    1.000
    O303     O        0.06429    0.06429    0.42685    1.000
    C304     C        0.08128    0.08128    0.47878    1.000
    C305     C        0.19126    0.19126    0.64741    1.000
    C306     C        0.89671    0.89671    0.74394    1.000
    C307     C        0.12974    0.12974    0.48052    1.000
    C308     C        0.14950    0.14950    0.53687    1.000
    H309     H        0.12944    0.12944    0.57954    1.000
    C310     C        0.19471    0.19471    0.54088    1.000
    C311     C        0.21770    0.21770    0.48900    1.000
    H312     H        0.25391    0.25391    0.49086    1.000
    C313     C        0.19771    0.19771    0.43240    1.000
    H314     H        0.21769    0.21769    0.38965    1.000
    C315     C        0.15380    0.15380    0.42930    1.000
    H316     H        0.13769    0.13769    0.38341    1.000
    O317     O        0.93802    0.93802    0.52779    1.000
    N318     N        0.04645    0.04645    0.64871    1.000
    C319     C        0.77881    0.77881    0.70255    1.000
    O320     O        0.78367    0.78367    0.59385    1.000
    C321     C        0.13112    0.13112    0.79718    1.000
    O322     O        0.93571    0.93571    0.42685    1.000
    C323     C        0.91872    0.91872    0.47878    1.000
    C324     C        0.80874    0.80874    0.64741    1.000
    C325     C        0.10329    0.10329    0.74394    1.000
    C326     C        0.87026    0.87026    0.48052    1.000
    C327     C        0.85050    0.85050    0.53687    1.000
    H328     H        0.87056    0.87056    0.57954    1.000
    C329     C        0.80529    0.80529    0.54088    1.000
    C330     C        0.78230    0.78230    0.48900    1.000
    H331     H        0.74609    0.74609    0.49086    1.000
    C332     C        0.80229    0.80229    0.43240    1.000
    H333     H        0.78231    0.78231    0.38965    1.000
    C334     C        0.84620    0.84620    0.42930    1.000
    H335     H        0.86231    0.86231    0.38341    1.000
    O336     O        0.06198    0.93802    0.47221    1.000
    N337     N        0.95355    0.04645    0.35129    1.000
    C338     C        0.22119    0.77881    0.29745    1.000
    O339     O        0.21633    0.78367    0.40615    1.000
    C340     C        0.86888    0.13112    0.20282    1.000
    O341     O        0.06429    0.93571    0.57315    1.000
    C342     C        0.08128    0.91872    0.52122    1.000
    C343     C        0.19126    0.80874    0.35259    1.000
    C344     C        0.89671    0.10329    0.25606    1.000
    C345     C        0.12974    0.87026    0.51948    1.000
    C346     C        0.14950    0.85050    0.46313    1.000
    H347     H        0.12944    0.87056    0.42046    1.000
    C348     C        0.19471    0.80529    0.45912    1.000
    C349     C        0.21770    0.78230    0.51100    1.000
    H350     H        0.25391    0.74609    0.50914    1.000
    C351     C        0.19771    0.80229    0.56760    1.000
    H352     H        0.21769    0.78231    0.61035    1.000
    C353     C        0.15380    0.84620    0.57070    1.000
    H354     H        0.13769    0.86231    0.61659    1.000
    C355     C        0.27366    0.72634    0.19658    1.000
    C356     C        0.30153    0.69847    0.13996    1.000
    C357     C        0.72634    0.27366    0.19658    1.000
    C358     C        0.69847    0.30153    0.13996    1.000
    C359     C        0.72634    0.72634    0.80342    1.000
    C360     C        0.69847    0.69847    0.86004    1.000
    C361     C        0.27366    0.27366    0.80342    1.000
    C362     C        0.30153    0.30153    0.86004    1.000
    C363     C        0.19658    0.27366    0.72634    1.000
    C364     C        0.13996    0.30153    0.69847    1.000
    C365     C        0.19658    0.72634    0.27366    1.000
    C366     C        0.13996    0.69847    0.30153    1.000
    C367     C        0.80342    0.72634    0.72634    1.000
    C368     C        0.86004    0.69847    0.69847    1.000
    C369     C        0.80342    0.27366    0.27366    1.000
    C370     C        0.86004    0.30153    0.30153    1.000
    C371     C        0.72634    0.19658    0.27366    1.000
    C372     C        0.69847    0.13996    0.30153    1.000
    C373     C        0.27366    0.19658    0.72634    1.000
    C374     C        0.30153    0.13996    0.69847    1.000
    C375     C        0.72634    0.80342    0.72634    1.000
    C376     C        0.69847    0.86004    0.69847    1.000
    C377     C        0.27366    0.80342    0.27366    1.000
    C378     C        0.30153    0.86004    0.30153    1.000
    N379     N        0.18050    0.18050    0.89516    1.000
    N380     N        0.81950    0.81950    0.89516    1.000
    N381     N        0.81950    0.18050    0.10484    1.000
    N382     N        0.18050    0.81950    0.10484    1.000
    N383     N        0.89516    0.18050    0.18050    1.000
    N384     N        0.89516    0.81950    0.81950    1.000
    N385     N        0.10484    0.81950    0.18050    1.000
    N386     N        0.10484    0.18050    0.81950    1.000
    N387     N        0.18050    0.89516    0.18050    1.000
    N388     N        0.81950    0.89516    0.81950    1.000
    N389     N        0.18050    0.10484    0.81950    1.000
    N390     N        0.81950    0.10484    0.18050    1.000
    H391     H        0.28133    0.72052    0.09835    1.000
    H392     H        0.29175    0.64818    0.13909    1.000
    H393     H        0.35221    0.70601    0.14038    1.000
    H394     H        0.67653    0.26474    0.11184    1.000
    H395     H        0.73507    0.32452    0.11245    1.000
    H396     H        0.66310    0.33603    0.15354    1.000
    H397     H        0.70661    0.64788    0.85995    1.000
    H398     H        0.64807    0.70766    0.86056    1.000
    H399     H        0.72004    0.71917    0.90165    1.000
    H400     H        0.33553    0.33738    0.84647    1.000
    H401     H        0.32511    0.26504    0.88721    1.000
    H402     H        0.26465    0.32287    0.88850    1.000
    H403     H        0.10204    0.26707    0.69877    1.000
    H404     H        0.14984    0.31563    0.65021    1.000
    H405     H        0.12594    0.34259    0.72573    1.000
    H406     H        0.14984    0.65021    0.31563    1.000
    H407     H        0.10204    0.69877    0.26707    1.000
    H408     H        0.12594    0.72573    0.34259    1.000
    H409     H        0.86026    0.70714    0.64797    1.000
    H410     H        0.86026    0.64797    0.70714    1.000
    H411     H        0.90166    0.71961    0.71961    1.000
    H412     H        0.88786    0.32399    0.26483    1.000
    H413     H        0.88786    0.26483    0.32399    1.000
    H414     H        0.84646    0.33646    0.33646    1.000
    H415     H        0.73507    0.11245    0.32452    1.000
    H416     H        0.67653    0.11184    0.26474    1.000
    H417     H        0.66310    0.15354    0.33603    1.000
    H418     H        0.29175    0.13909    0.64818    1.000
    H419     H        0.28133    0.09835    0.72052    1.000
    H420     H        0.35221    0.14038    0.70601    1.000
    H421     H        0.64807    0.86056    0.70766    1.000
    H422     H        0.70661    0.85995    0.64788    1.000
    H423     H        0.72004    0.90165    0.71917    1.000
    H424     H        0.32511    0.88721    0.26504    1.000
    H425     H        0.33553    0.84647    0.33738    1.000
    H426     H        0.26465    0.88850    0.32287    1.000
