# CIF file generated by openbabel 3.1.0, see https://openbabel.org
data_I
_chemical_name_common 'ECUTON_clean'
_cell_length_a 9.417
_cell_length_b 13.128
_cell_length_c 15.913
_cell_angle_alpha 90
_cell_angle_beta 90
_cell_angle_gamma 90
_space_group_name_H-M_alt 'P 1'
_space_group_name_Hall 'P 1'
loop_
    _symmetry_equiv_pos_as_xyz
    x,y,z
loop_
    _atom_site_label
    _atom_site_type_symbol
    _atom_site_fract_x
    _atom_site_fract_y
    _atom_site_fract_z
    _atom_site_occupancy
    Zn1      Zn       0.76853    0.66994    0.80100    1.000
    Zn2      Zn       0.73147    0.16994    0.69900    1.000
    Zn3      Zn       0.23147    0.33006    0.19900    1.000
    Zn4      Zn       0.26853    0.83006    0.30100    1.000
    H1       H        0.50430    0.69670    0.02930    1.000
    H2       H        0.11760    0.60810    0.10980    1.000
    H3       H        0.26920    0.51470    0.88720    1.000
    H4       H        0.74690    0.37280    0.60980    1.000
    H5       H        0.82310    0.75040    0.97740    1.000
    H6       H        0.02670    0.54690    0.72280    1.000
    H7       H        0.91170    0.41540    0.48630    1.000
    H8       H        0.07470    0.41650    0.46700    1.000
    H9       H        0.12610    0.42840    0.60830    1.000
    H10      H        0.03080    0.33220    0.59210    1.000
    H11      H        0.10660    0.73070    0.80160    1.000
    H12      H        0.99400    0.83340    0.09270    1.000
    H13      H        0.13910    0.87400    0.05760    1.000
    H14      H        0.98430    0.00740    0.08440    1.000
    H15      H        0.87300    0.96020    0.02300    1.000
    H16      H        0.99570    0.19670    0.47070    1.000
    H17      H        0.38240    0.10810    0.39020    1.000
    H18      H        0.23080    0.01470    0.61280    1.000
    H19      H        0.75310    0.87280    0.89020    1.000
    H20      H        0.67690    0.25040    0.52260    1.000
    H21      H        0.47330    0.04690    0.77720    1.000
    H22      H        0.58830    0.91540    0.01370    1.000
    H23      H        0.42530    0.91650    0.03300    1.000
    H24      H        0.37390    0.92840    0.89170    1.000
    H25      H        0.46920    0.83220    0.90790    1.000
    H26      H        0.39340    0.23070    0.69840    1.000
    H27      H        0.50600    0.33340    0.40730    1.000
    H28      H        0.36090    0.37400    0.44240    1.000
    H29      H        0.51570    0.50740    0.41560    1.000
    H30      H        0.62700    0.46020    0.47700    1.000
    H31      H        0.49570    0.30330    0.97070    1.000
    H32      H        0.88240    0.39190    0.89020    1.000
    H33      H        0.73080    0.48530    0.11280    1.000
    H34      H        0.25310    0.62720    0.39020    1.000
    H35      H        0.17690    0.24960    0.02260    1.000
    H36      H        0.97330    0.45310    0.27720    1.000
    H37      H        0.08830    0.58460    0.51370    1.000
    H38      H        0.92530    0.58350    0.53300    1.000
    H39      H        0.87390    0.57160    0.39170    1.000
    H40      H        0.96920    0.66780    0.40790    1.000
    H41      H        0.89340    0.26930    0.19840    1.000
    H42      H        0.00600    0.16660    0.90730    1.000
    H43      H        0.86090    0.12600    0.94240    1.000
    H44      H        0.01570    0.99260    0.91560    1.000
    H45      H        0.12700    0.03980    0.97700    1.000
    H46      H        0.00430    0.80330    0.52930    1.000
    H47      H        0.61760    0.89190    0.60980    1.000
    H48      H        0.76920    0.98530    0.38720    1.000
    H49      H        0.24690    0.12720    0.10980    1.000
    H50      H        0.32310    0.74960    0.47740    1.000
    H51      H        0.52670    0.95310    0.22280    1.000
    H52      H        0.41170    0.08460    0.98630    1.000
    H53      H        0.57470    0.08350    0.96700    1.000
    H54      H        0.62610    0.07160    0.10830    1.000
    H55      H        0.53080    0.16780    0.09210    1.000
    H56      H        0.60660    0.76930    0.30160    1.000
    H57      H        0.49400    0.66660    0.59270    1.000
    H58      H        0.63910    0.62600    0.55760    1.000
    H59      H        0.48430    0.49260    0.58440    1.000
    H60      H        0.37300    0.53980    0.52300    1.000
    C1       C        0.42030    0.66130    0.01970    1.000
    C2       C        0.51410    0.61310    0.87740    1.000
    C3       C        0.31180    0.66330    0.08160    1.000
    C4       C        0.40400    0.60830    0.94630    1.000
    C5       C        0.33310    0.72430    0.15950    1.000
    C6       C        0.18910    0.60840    0.06940    1.000
    C7       C        0.17490    0.55390    0.99560    1.000
    C8       C        0.28110    0.55320    0.93570    1.000
    C9       C        0.78800    0.41960    0.64640    1.000
    C10      C        0.90670    0.75650    0.94670    1.000
    C11      C        0.94090    0.51620    0.70880    1.000
    C12      C        0.00220    0.44300    0.50440    1.000
    C13      C        0.03220    0.40610    0.59130    1.000
    C14      C        0.06250    0.74700    0.85210    1.000
    C15      C        0.03890    0.86650    0.04510    1.000
    C16      C        0.97400    0.96970    0.03240    1.000
    C17      C        0.07970    0.16130    0.48030    1.000
    C18      C        0.98590    0.11310    0.62260    1.000
    C19      C        0.18820    0.16330    0.41840    1.000
    C20      C        0.09600    0.10830    0.55370    1.000
    C21      C        0.16690    0.22430    0.34050    1.000
    C22      C        0.31090    0.10840    0.43060    1.000
    C23      C        0.32510    0.05390    0.50440    1.000
    C24      C        0.21890    0.05320    0.56430    1.000
    C25      C        0.71200    0.91960    0.85360    1.000
    C26      C        0.59330    0.25650    0.55330    1.000
    C27      C        0.55910    0.01620    0.79120    1.000
    C28      C        0.49780    0.94300    0.99560    1.000
    C29      C        0.46780    0.90610    0.90870    1.000
    C30      C        0.43750    0.24700    0.64790    1.000
    C31      C        0.46110    0.36650    0.45490    1.000
    C32      C        0.52600    0.46970    0.46760    1.000
    C33      C        0.57970    0.33870    0.98030    1.000
    C34      C        0.48590    0.38690    0.12260    1.000
    C35      C        0.68820    0.33670    0.91840    1.000
    C36      C        0.59600    0.39170    0.05370    1.000
    C37      C        0.66690    0.27570    0.84050    1.000
    C38      C        0.81090    0.39160    0.93060    1.000
    C39      C        0.82510    0.44610    0.00440    1.000
    C40      C        0.71890    0.44680    0.06430    1.000
    C41      C        0.21200    0.58040    0.35360    1.000
    C42      C        0.09330    0.24350    0.05330    1.000
    C43      C        0.05910    0.48380    0.29120    1.000
    C44      C        0.99780    0.55700    0.49560    1.000
    C45      C        0.96780    0.59390    0.40870    1.000
    C46      C        0.93750    0.25300    0.14790    1.000
    C47      C        0.96110    0.13350    0.95490    1.000
    C48      C        0.02600    0.03030    0.96760    1.000
    C49      C        0.92030    0.83870    0.51970    1.000
    C50      C        0.01410    0.88690    0.37740    1.000
    C51      C        0.81180    0.83670    0.58160    1.000
    C52      C        0.90400    0.89170    0.44630    1.000
    C53      C        0.83310    0.77570    0.65950    1.000
    C54      C        0.68910    0.89160    0.56940    1.000
    C55      C        0.67490    0.94610    0.49560    1.000
    C56      C        0.78110    0.94680    0.43570    1.000
    C57      C        0.28800    0.08040    0.14640    1.000
    C58      C        0.40670    0.74350    0.44670    1.000
    C59      C        0.44090    0.98380    0.20880    1.000
    C60      C        0.50220    0.05700    0.00440    1.000
    C61      C        0.53220    0.09390    0.09130    1.000
    C62      C        0.56250    0.75300    0.35210    1.000
    C63      C        0.53890    0.63350    0.54510    1.000
    C64      C        0.47400    0.53030    0.53240    1.000
    N1       N        0.72380    0.47430    0.70420    1.000
    N2       N        0.92890    0.71910    0.87140    1.000
    N3       N        0.02210    0.80420    0.97170    1.000
    N4       N        0.81620    0.53770    0.74450    1.000
    N5       N        0.05200    0.49370    0.97690    1.000
    N6       N        0.92540    0.44570    0.65130    1.000
    N7       N        0.12330    0.79880    0.91100    1.000
    N8       N        0.77620    0.97430    0.79580    1.000
    N9       N        0.57110    0.21910    0.62860    1.000
    N10      N        0.47790    0.30420    0.52830    1.000
    N11      N        0.68380    0.03770    0.75550    1.000
    N12      N        0.44800    0.99370    0.52310    1.000
    N13      N        0.57460    0.94570    0.84870    1.000
    N14      N        0.37670    0.29880    0.58900    1.000
    N15      N        0.27620    0.52570    0.29580    1.000
    N16      N        0.07110    0.28090    0.12860    1.000
    N17      N        0.97790    0.19580    0.02830    1.000
    N18      N        0.18380    0.46230    0.25550    1.000
    N19      N        0.94800    0.50630    0.02310    1.000
    N20      N        0.07460    0.55430    0.34870    1.000
    N21      N        0.87670    0.20120    0.08900    1.000
    N22      N        0.22380    0.02570    0.20420    1.000
    N23      N        0.42890    0.78090    0.37140    1.000
    N24      N        0.52210    0.69580    0.47170    1.000
    N25      N        0.31620    0.96230    0.24450    1.000
    N26      N        0.55200    0.00630    0.47690    1.000
    N27      N        0.42540    0.05430    0.15130    1.000
    N28      N        0.62330    0.70120    0.41100    1.000
    O1       O        0.62560    0.66270    0.89150    1.000
    O2       O        0.22290    0.74090    0.20600    1.000
    O3       O        0.45140    0.75810    0.17470    1.000
    O4       O        0.49250    0.57270    0.80960    1.000
    O5       O        0.87440    0.16270    0.60850    1.000
    O6       O        0.27710    0.24090    0.29400    1.000
    O7       O        0.04860    0.25810    0.32530    1.000
    O8       O        0.00750    0.07270    0.69040    1.000
    O9       O        0.37440    0.33730    0.10850    1.000
    O10      O        0.77710    0.25910    0.79400    1.000
    O11      O        0.54860    0.24190    0.82530    1.000
    O12      O        0.50750    0.42730    0.19040    1.000
    O13      O        0.12560    0.83730    0.39150    1.000
    O14      O        0.72290    0.75910    0.70600    1.000
    O15      O        0.95140    0.74190    0.67470    1.000
    O16      O        0.99250    0.92730    0.30960    1.000
