# CIF file generated by openbabel 3.1.0, see https://openbabel.org
data_I
_chemical_name_common 'QUFFED_clean'
_cell_length_a 10.9357
_cell_length_b 10.9357
_cell_length_c 12.4549
_cell_angle_alpha 101.572
_cell_angle_beta 101.572
_cell_angle_gamma 99.2271
_space_group_name_H-M_alt 'P 1'
_space_group_name_Hall 'P 1'
loop_
    _symmetry_equiv_pos_as_xyz
    x,y,z
loop_
    _atom_site_label
    _atom_site_type_symbol
    _atom_site_fract_x
    _atom_site_fract_y
    _atom_site_fract_z
    _atom_site_occupancy
    Zn1      Zn       0.73604    0.34081    0.37630    1.000
    Zn2      Zn       0.65919    0.26396    0.12370    1.000
    H1       H        0.06700    0.39100    0.79900    1.000
    H2       H        0.98300    0.26700    0.83800    1.000
    H3       H        0.05300    0.23700    0.72600    1.000
    H4       H        0.51790    0.25410    0.50600    1.000
    H5       H        0.51480    0.25320    0.61800    1.000
    H6       H        0.53130    0.36930    0.58600    1.000
    H7       H        0.94630    0.35970    0.57710    1.000
    H8       H        0.03720    0.24480    0.08800    1.000
    H9       H        0.23890    0.22310    0.07700    1.000
    H10      H        0.36530    0.37470    0.41100    1.000
    H11      H        0.15860    0.37580    0.42200    1.000
    H12      H        0.60900    0.93300    0.70100    1.000
    H13      H        0.73300    0.01700    0.66200    1.000
    H14      H        0.76300    0.94700    0.77400    1.000
    H15      H        0.74590    0.48210    0.99400    1.000
    H16      H        0.74680    0.48520    0.88200    1.000
    H17      H        0.63070    0.46870    0.91400    1.000
    H18      H        0.64030    0.05370    0.92290    1.000
    H19      H        0.75520    0.96280    0.41200    1.000
    H20      H        0.77690    0.76110    0.42300    1.000
    H21      H        0.62530    0.63470    0.08900    1.000
    H22      H        0.62420    0.84140    0.07800    1.000
    C1       C        0.76487    0.28249    0.70451    1.000
    C2       C        0.93950    0.31804    0.26770    1.000
    C3       C        0.07399    0.31081    0.25910    1.000
    C4       C        0.09880    0.26720    0.15480    1.000
    C5       C        0.22310    0.26170    0.14730    1.000
    C6       C        0.32296    0.29924    0.24260    1.000
    C7       C        0.45782    0.29158    0.23550    1.000
    C8       C        0.29797    0.34323    0.34650    1.000
    C9       C        0.17394    0.34786    0.35500    1.000
    C10      C        0.88750    0.30890    0.69230    1.000
    C11      C        0.00630    0.30030    0.76950    1.000
    C12      C        0.54850    0.29450    0.57580    1.000
    C13      C        0.68890    0.30590    0.60540    1.000
    C14      C        0.71751    0.23513    0.79549    1.000
    C15      C        0.68196    0.06050    0.23230    1.000
    C16      C        0.68919    0.92601    0.24090    1.000
    C17      C        0.73280    0.90120    0.34520    1.000
    C18      C        0.73830    0.77690    0.35270    1.000
    C19      C        0.70076    0.67704    0.25740    1.000
    C20      C        0.70842    0.54218    0.26450    1.000
    C21      C        0.65677    0.70203    0.15350    1.000
    C22      C        0.65214    0.82606    0.14500    1.000
    C23      C        0.69110    0.11250    0.80770    1.000
    C24      C        0.69970    0.99370    0.73050    1.000
    C25      C        0.70550    0.45150    0.92420    1.000
    C26      C        0.69410    0.31110    0.89460    1.000
    N1       N        0.76970    0.33712    0.54133    1.000
    N2       N        0.88720    0.34120    0.59760    1.000
    N3       N        0.66288    0.23030    0.95867    1.000
    N4       N        0.65880    0.11280    0.90240    1.000
    O1       O        0.85424    0.28788    0.17847    1.000
    O2       O        0.92239    0.35671    0.36565    1.000
    O3       O        0.54234    0.32422    0.32542    1.000
    O4       O        0.47519    0.25025    0.13830    1.000
    O5       O        0.71212    0.14576    0.32153    1.000
    O6       O        0.64329    0.07761    0.13435    1.000
    O7       O        0.67578    0.45766    0.17458    1.000
    O8       O        0.74975    0.52481    0.36170    1.000
    Zn3      Zn       0.26396    0.65919    0.62370    1.000
    Zn4      Zn       0.34081    0.73604    0.87630    1.000
    H23      H        0.93300    0.60900    0.20100    1.000
    H24      H        0.01700    0.73300    0.16200    1.000
    H25      H        0.94700    0.76300    0.27400    1.000
    H26      H        0.48210    0.74590    0.49400    1.000
    H27      H        0.48520    0.74680    0.38200    1.000
    H28      H        0.46870    0.63070    0.41400    1.000
    H29      H        0.05370    0.64030    0.42290    1.000
    H30      H        0.96280    0.75520    0.91200    1.000
    H31      H        0.76110    0.77690    0.92300    1.000
    H32      H        0.63470    0.62530    0.58900    1.000
    H33      H        0.84140    0.62420    0.57800    1.000
    H34      H        0.39100    0.06700    0.29900    1.000
    H35      H        0.26700    0.98300    0.33800    1.000
    H36      H        0.23700    0.05300    0.22600    1.000
    H37      H        0.25410    0.51790    0.00600    1.000
    H38      H        0.25320    0.51480    0.11800    1.000
    H39      H        0.36930    0.53130    0.08600    1.000
    H40      H        0.35970    0.94630    0.07710    1.000
    H41      H        0.24480    0.03720    0.58800    1.000
    H42      H        0.22310    0.23890    0.57700    1.000
    H43      H        0.37470    0.36530    0.91100    1.000
    H44      H        0.37580    0.15860    0.92200    1.000
    C27      C        0.23513    0.71751    0.29549    1.000
    C28      C        0.06050    0.68196    0.73230    1.000
    C29      C        0.92601    0.68919    0.74090    1.000
    C30      C        0.90120    0.73280    0.84520    1.000
    C31      C        0.77690    0.73830    0.85270    1.000
    C32      C        0.67704    0.70076    0.75740    1.000
    C33      C        0.54218    0.70842    0.76450    1.000
    C34      C        0.70203    0.65677    0.65350    1.000
    C35      C        0.82606    0.65214    0.64500    1.000
    C36      C        0.11250    0.69110    0.30770    1.000
    C37      C        0.99370    0.69970    0.23050    1.000
    C38      C        0.45150    0.70550    0.42420    1.000
    C39      C        0.31110    0.69410    0.39460    1.000
    C40      C        0.28249    0.76487    0.20451    1.000
    C41      C        0.31804    0.93950    0.76770    1.000
    C42      C        0.31081    0.07399    0.75910    1.000
    C43      C        0.26720    0.09880    0.65480    1.000
    C44      C        0.26170    0.22310    0.64730    1.000
    C45      C        0.29924    0.32296    0.74260    1.000
    C46      C        0.29158    0.45782    0.73550    1.000
    C47      C        0.34323    0.29797    0.84650    1.000
    C48      C        0.34786    0.17394    0.85500    1.000
    C49      C        0.30890    0.88750    0.19230    1.000
    C50      C        0.30030    0.00630    0.26950    1.000
    C51      C        0.29450    0.54850    0.07580    1.000
    C52      C        0.30590    0.68890    0.10540    1.000
    N5       N        0.23030    0.66288    0.45867    1.000
    N6       N        0.11280    0.65880    0.40240    1.000
    N7       N        0.33712    0.76970    0.04133    1.000
    N8       N        0.34120    0.88720    0.09760    1.000
    O9       O        0.14576    0.71212    0.82153    1.000
    O10      O        0.07761    0.64329    0.63435    1.000
    O11      O        0.45766    0.67578    0.67458    1.000
    O12      O        0.52481    0.74975    0.86170    1.000
    O13      O        0.28788    0.85424    0.67847    1.000
    O14      O        0.35671    0.92239    0.86565    1.000
    O15      O        0.32422    0.54234    0.82542    1.000
    O16      O        0.25025    0.47519    0.63830    1.000
