# CIF file generated by openbabel 3.1.0, see https://openbabel.org
data_I
_chemical_name_common 'image0'
_cell_length_a 6.419
_cell_length_b 7.9361
_cell_length_c 8.911
_cell_angle_alpha 103.757
_cell_angle_beta 104.137
_cell_angle_gamma 106.945
_space_group_name_H-M_alt 'P 1'
_space_group_name_Hall 'P 1'
loop_
    _symmetry_equiv_pos_as_xyz
    x,y,z
loop_
    _atom_site_label
    _atom_site_type_symbol
    _atom_site_fract_x
    _atom_site_fract_y
    _atom_site_fract_z
    _atom_site_occupancy
    Ba1      Ba       0.15118    0.27066    0.42750    1.000
    O1       O        0.16470    0.57820    0.68498    1.000
    O2       O        0.19800    0.33990    0.76488    1.000
    O3       O        0.38300    0.57930    0.36247    1.000
    O4       O        0.37210    0.81020    0.26313    1.000
    C1       C        0.16310    0.48950    0.78730    1.000
    C2       C        0.10850    0.57200    0.93770    1.000
    H1       H        0.17970    0.71150    0.97730    1.000
    C3       C        0.31880    0.63930    0.24690    1.000
    C4       C        0.15800    0.49640    0.08200    1.000
    H2       H        0.20780    0.38830    0.05290    1.000
    O5       O        0.21770    0.95890    0.50826    1.000
    H3       H        0.26100    0.90800    0.43500    1.000
    H4       H        0.34400    0.01500    0.58200    1.000
    Ba2      Ba       0.84882    0.72934    0.57250    1.000
    O6       O        0.83530    0.42180    0.31502    1.000
    O7       O        0.80200    0.66010    0.23512    1.000
    O8       O        0.61700    0.42070    0.63753    1.000
    O9       O        0.62790    0.18980    0.73687    1.000
    C5       C        0.83690    0.51050    0.21270    1.000
    C6       C        0.89150    0.42800    0.06230    1.000
    H5       H        0.82030    0.28850    0.02270    1.000
    C7       C        0.68120    0.36070    0.75310    1.000
    C8       C        0.84200    0.50360    0.91800    1.000
    H6       H        0.79220    0.61170    0.94710    1.000
    O10      O        0.78230    0.04110    0.49174    1.000
    H7       H        0.73900    0.09200    0.56500    1.000
    H8       H        0.65600    0.98500    0.41800    1.000
