# CIF file generated by openbabel 3.1.0, see https://openbabel.org
data_I
_chemical_name_common 'IBIYOI_ion_b'
_cell_length_a 22.494
_cell_length_b 22.494
_cell_length_c 22.494
_cell_angle_alpha 113.084
_cell_angle_beta 113.084
_cell_angle_gamma 102.464
_space_group_name_H-M_alt 'P 1'
_space_group_name_Hall 'P 1'
loop_
    _symmetry_equiv_pos_as_xyz
    x,y,z
loop_
    _atom_site_label
    _atom_site_type_symbol
    _atom_site_fract_x
    _atom_site_fract_y
    _atom_site_fract_z
    _atom_site_occupancy
    I1       I        0.18770    0.47188    0.49583    1.000
    Cu2      Cu       0.32417    0.54475    0.60657    1.000
    S3       S        0.91102    0.72957    0.31347    1.000
    S4       S        0.35554    0.48916    0.66810    1.000
    N5       N        0.05518    0.74876    0.45937    1.000
    N6       N        0.77932    0.74149    0.18389    1.000
    N7       N        0.38638    0.54079    0.56510    1.000
    C8       C        0.09057    0.75749    0.52930    1.000
    C9       C        0.16595    0.78892    0.57328    1.000
    C10      C        0.20660    0.81083    0.54540    1.000
    C11      C        0.16900    0.80254    0.47369    1.000
    C12      C        0.09318    0.77152    0.43155    1.000
    C13      C        0.83544    0.79491    0.19855    1.000
    C14      C        0.82430    0.82903    0.15717    1.000
    C15      C        0.75455    0.80742    0.09831    1.000
    C16      C        0.69775    0.75139    0.08398    1.000
    C17      C        0.71118    0.72028    0.12821    1.000
    C18      C        0.45875    0.57642    0.61254    1.000
    C19      C        0.50298    0.56177    0.58488    1.000
    C20      C        0.47250    0.51275    0.50704    1.000
    C21      C        0.39780    0.48165    0.45826    1.000
    C22      C        0.35547    0.49601    0.48870    1.000
    H23      H        0.06008    0.73980    0.55116    1.000
    H24      H        0.19227    0.79664    0.62914    1.000
    H25      H        0.19804    0.81866    0.44985    1.000
    H26      H        0.06500    0.76431    0.37592    1.000
    H27      H        0.88902    0.81144    0.24251    1.000
    H28      H        0.87020    0.87229    0.17186    1.000
    H29      H        0.64312    0.73096    0.03853    1.000
    H30      H        0.66680    0.67862    0.11774    1.000
    I31      I        0.47645    0.69201    0.00390    1.000
    Cu32     Cu       0.43801    0.71749    0.89298    1.000
    S33      S        0.91622    0.59750    0.18663    1.000
    S34      S        0.32079    0.68688    0.83157    1.000
    N35      N        0.78933    0.59553    0.04059    1.000
    N36      N        0.05778    0.59546    0.31629    1.000
    N37      N        0.47522    0.82116    0.93426    1.000
    C38      C        0.72815    0.56081    0.97060    1.000
    C39      C        0.71552    0.59209    0.92649    1.000
    C40      C        0.76519    0.66064    0.95430    1.000
    C41      C        0.82856    0.69494    0.02609    1.000
    C42      C        0.83977    0.66139    0.06835    1.000
    C43      C        0.09655    0.63693    0.30165    1.000
    C44      C        0.17205    0.66722    0.34309    1.000
    C45      C        0.20930    0.65639    0.40201    1.000
    C46      C        0.16758    0.61390    0.41631    1.000
    C47      C        0.09224    0.58304    0.37202    1.000
    C48      C        0.46343    0.84603    0.88676    1.000
    C49      C        0.47633    0.91789    0.91433    1.000
    C50      C        0.50504    0.96529    0.99214    1.000
    C51      C        0.52266    0.93941    0.04097    1.000
    C52      C        0.50669    0.86667    0.01062    1.000
    H53      H        0.68870    0.50843    0.94879    1.000
    H54      H        0.66740    0.56244    0.87060    1.000
    H55      H        0.86842    0.74787    0.04986    1.000
    H56      H        0.88816    0.68897    0.12403    1.000
    H57      H        0.06912    0.64653    0.25768    1.000
    H58      H        0.20063    0.69843    0.32841    1.000
    H59      H        0.19258    0.60475    0.46178    1.000
    H60      H        0.06105    0.54913    0.38248    1.000
    I61      I        0.46689    0.47030    0.27939    1.000
    Cu62     Cu       0.55150    0.44759    0.22767    1.000
    S63      S        0.72895    0.91599    0.81871    1.000
    S64      S        0.52360    0.33040    0.18077    1.000
    N65      N        0.74869    0.78887    0.69409    1.000
    N66      N        0.74056    0.05760    0.96200    1.000
    N67      N        0.53841    0.47597    0.15358    1.000
    C68      C        0.75638    0.72714    0.66643    1.000
    C69      C        0.78831    0.71468    0.62295    1.000
    C70      C        0.81151    0.76505    0.60513    1.000
    C71      C        0.80321    0.82856    0.63473    1.000
    C72      C        0.77218    0.83970    0.67950    1.000
    C73      C        0.79418    0.09623    0.95945    1.000
    C74      C        0.82838    0.17173    0.00464    1.000
    C75      C        0.80674    0.20910    0.05267    1.000
    C76      C        0.75062    0.16757    0.05345    1.000
    C77      C        0.71924    0.09220    0.00877    1.000
    C78      C        0.57470    0.46285    0.11773    1.000
    C79      C        0.56166    0.47508    0.05864    1.000
    C80      C        0.51368    0.50459    0.03914    1.000
    C81      C        0.48067    0.52226    0.08077    1.000
    C82      C        0.49330    0.50674    0.13767    1.000
    H83      H        0.73763    0.68708    0.67820    1.000
    H84      H        0.79523    0.66594    0.60396    1.000
    H85      H        0.81921    0.86882    0.62214    1.000
    H86      H        0.76540    0.88835    0.70084    1.000
    H87      H        0.81080    0.06868    0.92256    1.000
    H88      H        0.87176    0.20022    0.00209    1.000
    H89      H        0.73038    0.19278    0.08780    1.000
    H90      H        0.67732    0.06112    0.01127    1.000
    I91      I        0.69033    0.18729    0.21977    1.000
    Cu92     Cu       0.71938    0.32365    0.27169    1.000
    S93      S        0.59763    0.91025    0.68153    1.000
    S94      S        0.64904    0.34261    0.31851    1.000
    N95      N        0.59494    0.05449    0.80591    1.000
    N96      N        0.59576    0.77858    0.53815    1.000
    N97      N        0.82184    0.38460    0.34590    1.000
    C98      C        0.56047    0.08984    0.83278    1.000
    C99      C        0.59154    0.16525    0.87634    1.000
    C100     C        0.66013    0.20626    0.89500    1.000
    C101     C        0.69441    0.16834    0.86612    1.000
    C102     C        0.66076    0.09256    0.82129    1.000
    C103     C        0.63756    0.83481    0.54126    1.000
    C104     C        0.66788    0.82378    0.49610    1.000
    C105     C        0.65664    0.75403    0.44753    1.000
    C106     C        0.61374    0.69706    0.44621    1.000
    C107     C        0.58304    0.71041    0.49088    1.000
    C108     C        0.84464    0.45676    0.38186    1.000
    C109     C        0.91595    0.50273    0.44103    1.000
    C110     C        0.96490    0.47418    0.46052    1.000
    C111     C        0.94088    0.39953    0.41881    1.000
    C112     C        0.86846    0.35534    0.36182    1.000
    H113     H        0.50832    0.05932    0.82035    1.000
    H114     H        0.56152    0.19117    0.89477    1.000
    H115     H        0.74754    0.19692    0.87933    1.000
    H116     H        0.68836    0.06442    0.80055    1.000
    H117     H        0.64741    0.88841    0.57860    1.000
    H118     H        0.69941    0.86978    0.49909    1.000
    H119     H        0.60414    0.64238    0.41144    1.000
    H120     H        0.54900    0.66596    0.48797    1.000
    I121     I        0.00038    0.01545    0.21186    1.000
    Cu122    Cu       0.06457    0.95538    0.27967    1.000
    S123     S        0.58658    0.73222    0.65372    1.000
    S124     S        0.18172    0.02013    0.36045    1.000
    N125     N        0.72141    0.75706    0.81886    1.000
    N126     N        0.44165    0.74870    0.53497    1.000
    N127     N        0.04017    0.96289    0.35604    1.000
    C128     C        0.78457    0.75167    0.84610    1.000
    C129     C        0.80034    0.72157    0.89141    1.000
    C130     C        0.75059    0.69552    0.90848    1.000
    C131     C        0.68591    0.70187    0.87978    1.000
    C132     C        0.67245    0.73300    0.83531    1.000
    C133     C        0.40170    0.68606    0.52370    1.000
    C134     C        0.32636    0.65490    0.48010    1.000
    C135     C        0.29042    0.68848    0.44772    1.000
    C136     C        0.33338    0.75332    0.46035    1.000
    C137     C        0.40881    0.78223    0.50372    1.000
    C138     C        0.01705    0.90890    0.36648    1.000
    C139     C        0.00364    0.92259    0.42532    1.000
    C140     C        0.01441    0.99224    0.47329    1.000
    C141     C        0.03725    0.04609    0.45991    1.000
    C142     C        0.05004    0.03022    0.40117    1.000
    H143     H        0.82266    0.77012    0.83209    1.000
    H144     H        0.85014    0.71683    0.91126    1.000
    H145     H        0.64630    0.68345    0.89224    1.000
    H146     H        0.62254    0.73760    0.81359    1.000
    H147     H        0.42835    0.65982    0.54833    1.000
    H148     H        0.29682    0.60437    0.47142    1.000
    H149     H        0.30927    0.78276    0.43872    1.000
    H150     H        0.44114    0.83237    0.51368    1.000
    I151     I        0.30376    0.78863    0.28807    1.000
    Cu152    Cu       0.17593    0.78524    0.22056    1.000
    S153     S        0.57863    0.93279    0.84634    1.000
    S154     S        0.15962    0.82153    0.13969    1.000
    N155     N        0.43847    0.90238    0.68097    1.000
    N156     N        0.71384    0.90677    0.96532    1.000
    N157     N        0.10709    0.68451    0.14428    1.000
    C158     C        0.40594    0.93748    0.65211    1.000
    C159     C        0.33055    0.90790    0.60664    1.000
    C160     C        0.28732    0.84193    0.59110    1.000
    C161     C        0.32229    0.80668    0.62123    1.000
    C162     C        0.39787    0.83770    0.66584    1.000
    C163     C        0.66253    0.87825    0.97674    1.000
    C164     C        0.67500    0.84655    0.02039    1.000
    C165     C        0.74093    0.84289    0.05266    1.000
    C166     C        0.79308    0.87310    0.03991    1.000
    C167     C        0.77860    0.90512    0.99650    1.000
    C168     C        0.04276    0.65093    0.13399    1.000
    C169     C        0.99756    0.57870    0.07510    1.000
    C170     C        0.01909    0.54158    0.02692    1.000
    C171     C        0.08626    0.57782    0.04018    1.000
    C172     C        0.12919    0.64931    0.09900    1.000
    H173     H        0.43851    0.98899    0.66502    1.000
    H174     H        0.30605    0.93721    0.58544    1.000
    H175     H        0.29136    0.75515    0.60980    1.000
    H176     H        0.42412    0.81008    0.68871    1.000
    H177     H        0.61168    0.88033    0.95218    1.000
    H178     H        0.63321    0.82579    0.02919    1.000
    H179     H        0.84411    0.87053    0.06144    1.000
    H180     H        0.81872    0.92738    0.98643    1.000
    I181     I        0.78790    0.00002    0.48456    1.000
    Cu182    Cu       0.78538    0.06470    0.60951    1.000
    S183     S        0.93338    0.58644    0.35378    1.000
    S184     S        0.82151    0.18160    0.66102    1.000
    N185     N        0.90352    0.72124    0.46451    1.000
    N186     N        0.90659    0.44143    0.19249    1.000
    N187     N        0.68474    0.04027    0.57824    1.000
    C188     C        0.92846    0.78988    0.52174    1.000
    C189     C        0.89892    0.80574    0.56772    1.000
    C190     C        0.84316    0.75056    0.55563    1.000
    C191     C        0.81812    0.68051    0.49544    1.000
    C192     C        0.84890    0.66690    0.45077    1.000
    C193     C        0.87903    0.40164    0.21598    1.000
    C194     C        0.84722    0.32626    0.17188    1.000
    C195     C        0.84232    0.29020    0.10163    1.000
    C196     C        0.87186    0.33297    0.07918    1.000
    C197     C        0.90406    0.40840    0.12560    1.000
    C198     C        0.65148    0.01671    0.60909    1.000
    C199     C        0.57905    0.00252    0.58189    1.000
    C200     C        0.54134    0.01316    0.52305    1.000
    C201     C        0.57749    0.03700    0.49245    1.000
    C202     C        0.64912    0.05023    0.52097    1.000
    H203     H        0.97188    0.83231    0.53219    1.000
    H204     H        0.92032    0.86053    0.61306    1.000
    H205     H        0.77436    0.63650    0.48251    1.000
    H206     H        0.82879    0.61263    0.40479    1.000
    H207     H        0.88204    0.42840    0.26945    1.000
    H208     H        0.82731    0.29673    0.19340    1.000
    H209     H        0.86875    0.30867    0.02529    1.000
    H210     H        0.92584    0.44059    0.10733    1.000
    I211     I        0.01572    0.30457    0.01599    1.000
    Cu212    Cu       0.95557    0.17690    0.89122    1.000
    S213     S        0.73280    0.57954    0.14638    1.000
    S214     S        0.02074    0.16143    0.83944    1.000
    N215     N        0.75689    0.43888    0.03573    1.000
    N216     N        0.74912    0.71405    0.30767    1.000
    N217     N        0.96286    0.10786    0.92293    1.000
    C218     C        0.76922    0.40663    0.97926    1.000
    C219     C        0.73914    0.33112    0.93328    1.000
    C220     C        0.69517    0.28740    0.94459    1.000
    C221     C        0.68446    0.32251    0.00409    1.000
    C222     C        0.71548    0.39796    0.04876    1.000
    C223     C        0.68557    0.66320    0.28391    1.000
    C224     C        0.65431    0.67550    0.32803    1.000
    C225     C        0.68878    0.74062    0.39856    1.000
    C226     C        0.75429    0.79241    0.42129    1.000
    C227     C        0.78327    0.77819    0.37485    1.000
    C228     C        0.90845    0.04353    0.89169    1.000
    C229     C        0.92062    0.99764    0.91818    1.000
    C230     C        0.98934    0.01801    0.97731    1.000
    C231     C        0.04649    0.08858    0.01014    1.000
    C232     C        0.03026    0.13056    0.98060    1.000
    H233     H        0.80193    0.43964    0.96944    1.000
    H234     H        0.74936    0.30721    0.88856    1.000
    H235     H        0.65276    0.29166    0.01650    1.000
    H236     H        0.70652    0.42380    0.09420    1.000
    H237     H        0.65863    0.61292    0.23021    1.000
    H238     H        0.60304    0.63424    0.30629    1.000
    H239     H        0.78410    0.84299    0.47539    1.000
    H240     H        0.83393    0.81807    0.39332    1.000
    I241     I        0.80337    0.51988    0.51481    1.000
    Cu242    Cu       0.67506    0.45670    0.39035    1.000
    S243     S        0.07744    0.23062    0.64624    1.000
    S244     S        0.65785    0.51977    0.33641    1.000
    N245     N        0.93639    0.25512    0.53611    1.000
    N246     N        0.21251    0.24696    0.80758    1.000
    N247     N        0.60598    0.46469    0.42174    1.000
    C248     C        0.90425    0.27242    0.48412    1.000
    C249     C        0.82877    0.24249    0.43825    1.000
    C250     C        0.78507    0.19380    0.44529    1.000
    C251     C        0.82011    0.17849    0.50071    1.000
    C252     C        0.89548    0.20925    0.54515    1.000
    C253     C        0.15993    0.18604    0.78646    1.000
    C254     C        0.17236    0.15443    0.83019    1.000
    C255     C        0.23945    0.18592    0.89771    1.000
    C256     C        0.29306    0.24869    0.91779    1.000
    C257     C        0.27857    0.27810    0.87174    1.000
    C258     C        0.54271    0.41042    0.39316    1.000
    C259     C        0.49785    0.42460    0.42055    1.000
    C260     C        0.51868    0.49509    0.47727    1.000
    C261     C        0.58449    0.54932    0.50551    1.000
    C262     C        0.62708    0.53288    0.47671    1.000
    H263     H        0.93731    0.30915    0.47787    1.000
    H264     H        0.80493    0.25671    0.39704    1.000
    H265     H        0.78928    0.14340    0.51024    1.000
    H266     H        0.92126    0.19659    0.58729    1.000
    H267     H        0.10809    0.16156    0.73521    1.000
    H268     H        0.12961    0.10520    0.81057    1.000
    H269     H        0.34535    0.27606    0.96962    1.000
    H270     H        0.31987    0.32670    0.88812    1.000
    I271     I        0.50456    0.28860    0.98456    1.000
    Cu272    Cu       0.56587    0.28463    0.10895    1.000
    S273     S        0.08444    0.43100    0.85362    1.000
    S274     S        0.68289    0.32133    0.16296    1.000
    N275     N        0.21921    0.40017    0.96377    1.000
    N276     N        0.93941    0.40485    0.69230    1.000
    N277     N        0.54239    0.18413    0.07746    1.000
    C278     C        0.28854    0.41943    0.01511    1.000
    C279     C        0.30455    0.38989    0.06104    1.000
    C280     C        0.24885    0.33985    0.05476    1.000
    C281     C        0.17805    0.32002    0.99995    1.000
    C282     C        0.16431    0.35085    0.95542    1.000
    C283     C        0.89957    0.37398    0.71376    1.000
    C284     C        0.82423    0.34273    0.67001    1.000
    C285     C        0.78822    0.34172    0.60211    1.000
    C286     C        0.83097    0.37470    0.58171    1.000
    C287     C        0.90643    0.40623    0.62780    1.000
    C288     C        0.51677    0.14946    0.10611    1.000
    C289     C        0.50348    0.07719    0.07867    1.000
    C290     C        0.51713    0.04125    0.02187    1.000
    C291     C        0.54304    0.07877    0.99355    1.000
    C292     C        0.55546    0.15019    0.02237    1.000
    H293     H        0.33149    0.45819    0.02075    1.000
    H294     H        0.36001    0.40675    0.10171    1.000
    H295     H        0.13343    0.28015    0.99095    1.000
    H296     H        0.10946    0.33492    0.91377    1.000
    H297     H        0.92631    0.37384    0.76530    1.000
    H298     H        0.79462    0.32011    0.68993    1.000
    H299     H        0.80659    0.37474    0.52964    1.000
    H300     H        0.93868    0.43073    0.61118    1.000
    I301     I        0.54042    0.52695    0.73054    1.000
    Cu302    Cu       0.45811    0.56398    0.78031    1.000
    S303     S        0.23048    0.08399    0.15294    1.000
    S304     S        0.48288    0.67845    0.82171    1.000
    N305     N        0.25389    0.21819    0.31721    1.000
    N306     N        0.24687    0.93910    0.03475    1.000
    N307     N        0.47211    0.54276    0.85940    1.000
    C308     C        0.26897    0.28723    0.36479    1.000
    C309     C        0.23804    0.30263    0.40938    1.000
    C310     C        0.19060    0.24663    0.40529    1.000
    C311     C        0.17744    0.17627    0.35680    1.000
    C312     C        0.20923    0.16308    0.31316    1.000
    C313     C        0.18509    0.89937    0.02511    1.000
    C314     C        0.15363    0.82403    0.98138    1.000
    C315     C        0.18610    0.78802    0.94734    1.000
    C316     C        0.24978    0.83061    0.95786    1.000
    C317     C        0.27909    0.90605    0.00154    1.000
    C318     C        0.41660    0.51621    0.86633    1.000
    C319     C        0.42876    0.50264    0.92463    1.000
    C320     C        0.49873    0.51724    0.97609    1.000
    C321     C        0.55474    0.54486    0.96731    1.000
    C322     C        0.54021    0.55804    0.90886    1.000
    H323     H        0.30460    0.33040    0.36766    1.000
    H324     H        0.25052    0.35787    0.44600    1.000
    H325     H        0.14342    0.13170    0.35352    1.000
    H326     H        0.19838    0.10851    0.27625    1.000
    H327     H        0.15976    0.92615    0.05113    1.000
    H328     H        0.10375    0.79439    0.97381    1.000
    H329     H        0.27776    0.80609    0.93399    1.000
    H330     H        0.32839    0.93824    0.00995    1.000
    I331     I        0.29560    0.80933    0.76966    1.000
    Cu332    Cu       0.28318    0.67732    0.71938    1.000
    S333     S        0.43105    0.07751    0.34696    1.000
    S334     S        0.35615    0.66087    0.67777    1.000
    N335     N        0.40099    0.93657    0.18276    1.000
    N336     N        0.40441    0.21211    0.46511    1.000
    N337     N        0.18286    0.61218    0.64032    1.000
    C338     C        0.42277    0.90406    0.13553    1.000
    C339     C        0.39364    0.82856    0.09100    1.000
    C340     C        0.34145    0.78518    0.09477    1.000
    C341     C        0.31928    0.82050    0.14294    1.000
    C342     C        0.34970    0.89594    0.18654    1.000
    C343     C        0.37409    0.15986    0.47449    1.000
    C344     C        0.34256    0.17211    0.51829    1.000
    C345     C        0.34086    0.23871    0.55264    1.000
    C346     C        0.37315    0.29199    0.54238    1.000
    C347     C        0.40484    0.27764    0.49862    1.000
    C348     C        0.14937    0.54964    0.63320    1.000
    C349     C        0.07750    0.50356    0.57490    1.000
    C350     C        0.04062    0.52222    0.52361    1.000
    C351     C        0.07703    0.58710    0.53256    1.000
    C352     C        0.14866    0.63097    0.59102    1.000
    H353     H        0.46332    0.93683    0.13292    1.000
    H354     H        0.41252    0.80443    0.05466    1.000
    H355     H        0.27781    0.78976    0.14600    1.000
    H356     H        0.33183    0.92200    0.22322    1.000
    H357     H        0.37462    0.10843    0.44820    1.000
    H358     H        0.32031    0.12971    0.52565    1.000
    H359     H        0.37270    0.34392    0.56650    1.000
    H360     H        0.42878    0.31862    0.49040    1.000
    I361     I        0.97702    0.97288    0.78610    1.000
    Cu362    Cu       0.95045    0.05417    0.73066    1.000
    S363     S        0.41391    0.22767    0.31874    1.000
    S364     S        0.83286    0.02456    0.68314    1.000
    N365     N        0.28706    0.24642    0.19393    1.000
    N366     N        0.55567    0.23974    0.46260    1.000
    N367     N        0.97824    0.03945    0.65556    1.000
    C368     C        0.22891    0.26070    0.17260    1.000
    C369     C        0.21648    0.29216    0.12868    1.000
    C370     C        0.26350    0.30872    0.10468    1.000
    C371     C        0.32374    0.29430    0.12850    1.000
    C372     C        0.33466    0.26333    0.17324    1.000
    C373     C        0.59399    0.29705    0.46449    1.000
    C374     C        0.66952    0.33132    0.50960    1.000
    C375     C        0.70717    0.30628    0.55329    1.000
    C376     C        0.66596    0.24678    0.54995    1.000
    C377     C        0.59060    0.21523    0.50538    1.000
    C378     C        0.96259    0.07284    0.61677    1.000
    C379     C        0.97313    0.05736    0.55625    1.000
    C380     C        0.00325    0.00958    0.53779    1.000
    C381     C        0.02388    0.98003    0.58265    1.000
    C382     C        0.01010    0.99511    0.64108    1.000
    H383     H        0.19152    0.24716    0.18938    1.000
    H384     H        0.17034    0.30376    0.11406    1.000
    H385     H        0.36144    0.30534    0.11135    1.000
    H386     H        0.38049    0.25143    0.18989    1.000
    H387     H        0.56606    0.31670    0.43153    1.000
    H388     H        0.69787    0.37746    0.51056    1.000
    H389     H        0.69147    0.22401    0.58091    1.000
    H390     H        0.55987    0.17061    0.50480    1.000
    I391     I        0.68667    0.19121    0.71494    1.000
    Cu392    Cu       0.82340    0.22031    0.76997    1.000
    S393     S        0.40882    0.09501    0.18104    1.000
    S394     S        0.84169    0.15046    0.81772    1.000
    N395     N        0.55245    0.09299    0.30614    1.000
    N396     N        0.27685    0.09280    0.03710    1.000
    N397     N        0.88378    0.32321    0.84476    1.000
    C398     C        0.58796    0.05655    0.32854    1.000
    C399     C        0.66334    0.08799    0.37249    1.000
    C400     C        0.70399    0.15859    0.39549    1.000
    C401     C        0.66584    0.19467    0.37073    1.000
    C402     C        0.59013    0.16088    0.32592    1.000
    C403     C        0.33200    0.12808    0.03414    1.000
    C404     C        0.32121    0.15857    0.98910    1.000
    C405     C        0.25278    0.15364    0.94647    1.000
    C406     C        0.19685    0.11684    0.95077    1.000
    C407     C        0.20979    0.08600    0.99529    1.000
    C408     C        0.95597    0.34631    0.88330    1.000
    C409     C        0.00110    0.41739    0.94374    1.000
    C410     C        0.97186    0.46598    0.96235    1.000
    C411     C        0.89745    0.44184    0.91764    1.000
    C412     C        0.85400    0.36961    0.85930    1.000
    H413     H        0.55756    0.00272    0.31251    1.000
    H414     H        0.68946    0.05672    0.38787    1.000
    H415     H        0.69410    0.24924    0.38717    1.000
    H416     H        0.56167    0.18979    0.30850    1.000
    H417     H        0.38433    0.13208    0.06615    1.000
    H418     H        0.36616    0.18510    0.98729    1.000
    H419     H        0.14337    0.11226    0.92060    1.000
    H420     H        0.16590    0.05665    0.99660    1.000
    I421     I        0.19040    0.97631    0.50410    1.000
    Cu422    Cu       0.21962    0.94913    0.39651    1.000
    S423     S        0.09546    0.41419    0.68611    1.000
    S424     S        0.14923    0.83179    0.30788    1.000
    N425     N        0.09126    0.28548    0.53861    1.000
    N426     N        0.09318    0.55572    0.81648    1.000
    N427     N        0.32245    0.97622    0.43914    1.000
    C428     C        0.05414    0.22653    0.46653    1.000
    C429     C        0.08489    0.21352    0.42180    1.000
    C430     C        0.15535    0.26086    0.45112    1.000
    C431     C        0.19198    0.32137    0.52533    1.000
    C432     C        0.15915    0.33301    0.56814    1.000
    C433     C        0.12892    0.59418    0.79714    1.000
    C434     C        0.15907    0.66967    0.83844    1.000
    C435     C        0.15378    0.70708    0.90169    1.000
    C436     C        0.11643    0.66580    0.92026    1.000
    C437     C        0.08566    0.59044    0.87626    1.000
    C438     C        0.34636    0.96302    0.39075    1.000
    C439     C        0.41743    0.97352    0.41686    1.000
    C440     C        0.46530    0.00098    0.49428    1.000
    C441     C        0.44001    0.01816    0.54384    1.000
    C442     C        0.36792    0.00488    0.51485    1.000
    H443     H        0.00035    0.18901    0.44362    1.000
    H444     H        0.05340    0.16678    0.36446    1.000
    H445     H        0.24645    0.35826    0.55062    1.000
    H446     H        0.18879    0.37929    0.62565    1.000
    H447     H        0.13332    0.56633    0.74905    1.000
    H448     H        0.18543    0.69830    0.82014    1.000
    H449     H        0.11127    0.69129    0.96877    1.000
    H450     H        0.05570    0.55956    0.89015    1.000
    I451     I        0.97218    0.68627    0.99624    1.000
    Cu452    Cu       0.05245    0.82310    0.10376    1.000
    S453     S        0.22811    0.40918    0.81368    1.000
    S454     S        0.02396    0.84134    0.19253    1.000
    N455     N        0.24694    0.55251    0.96127    1.000
    N456     N        0.23937    0.27653    0.68346    1.000
    N457     N        0.03653    0.88310    0.06096    1.000
    C458     C        0.25960    0.58740    0.03315    1.000
    C459     C        0.29133    0.66288    0.07795    1.000
    C460     C        0.30984    0.70410    0.04889    1.000
    C461     C        0.29665    0.66658    0.97490    1.000
    C462     C        0.26546    0.59093    0.93202    1.000
    C463     C        0.29745    0.33153    0.70314    1.000
    C464     C        0.33167    0.32045    0.66185    1.000
    C465     C        0.30560    0.25201    0.59832    1.000
    C466     C        0.24551    0.19614    0.57947    1.000
    C467     C        0.21412    0.20932    0.62343    1.000
    C468     C        0.07219    0.95543    0.10912    1.000
    C469     C        0.05649    0.00034    0.08295    1.000
    C470     C        0.00576    0.97062    0.00577    1.000
    C471     C        0.97279    0.89576    0.95638    1.000
    C472     C        0.98877    0.85273    0.98539    1.000
    H473     H        0.24463    0.55647    0.05587    1.000
    H474     H        0.30159    0.68867    0.13515    1.000
    H475     H        0.30869    0.69581    0.94982    1.000
    H476     H        0.25464    0.56312    0.87467    1.000
    H477     H        0.31790    0.38392    0.75148    1.000
    H478     H        0.37875    0.36505    0.68035    1.000
    H479     H        0.22232    0.14257    0.53074    1.000
    H480     H        0.16913    0.16550    0.60928    1.000
    W481     W        0.84481    0.59472    0.25008    1.000
    W482     W        0.59425    0.84411    0.75008    1.000
    W483     W        0.09305    0.34295    0.74993    1.000
    W484     W        0.34269    0.09267    0.24992    1.000
    W485     W        0.34854    0.59846    0.74980    1.000
    W486     W        0.65786    0.40803    0.24968    1.000
    W487     W        0.15822    0.90834    0.25010    1.000
    W488     W        0.90863    0.15897    0.75024    1.000
    Cu489    Cu       0.94699    0.69891    0.40003    1.000
    Cu490    Cu       0.79896    0.54682    0.10009    1.000
    Cu491    Cu       0.69890    0.79878    0.75263    1.000
    Cu492    Cu       0.54637    0.94617    0.74741    1.000
    Cu493    Cu       0.04413    0.29648    0.59963    1.000
    Cu494    Cu       0.19694    0.44435    0.90022    1.000
    Cu495    Cu       0.29642    0.19637    0.25188    1.000
    Cu496    Cu       0.44445    0.04443    0.24800    1.000
    Cu497    Cu       0.79261    0.69320    0.24380    1.000
    Cu498    Cu       0.94958    0.54881    0.25634    1.000
    Cu499    Cu       0.69250    0.94940    0.90063    1.000
    Cu500    Cu       0.54896    0.79191    0.59955    1.000
    Cu501    Cu       0.19141    0.29041    0.74365    1.000
    Cu502    Cu       0.04681    0.44758    0.75622    1.000
    Cu503    Cu       0.29030    0.04643    0.09899    1.000
    Cu504    Cu       0.44743    0.19127    0.40080    1.000
    H505     H        0.48201    0.61360    0.67255    1.000
    H506     H        0.56046    0.58698    0.62459    1.000
    H507     H        0.37242    0.44609    0.39739    1.000
    H508     H        0.29777    0.46970    0.45136    1.000
    H509     H        0.44069    0.80926    0.82678    1.000
    H510     H        0.46186    0.93560    0.87457    1.000
    H511     H        0.54787    0.97492    0.10182    1.000
    H512     H        0.51773    0.84637    0.04801    1.000
    H513     H        0.61163    0.44004    0.13306    1.000
    H514     H        0.58771    0.46011    0.02743    1.000
    H515     H        0.44555    0.54780    0.06938    1.000
    H516     H        0.46704    0.51921    0.16898    1.000
    H517     H        0.80658    0.47843    0.36653    1.000
    H518     H        0.93224    0.56000    0.47230    1.000
    H519     H        0.97774    0.37574    0.43015    1.000
    H520     H        0.84959    0.29777    0.33043    1.000
    H521     H        0.01156    0.85632    0.33119    1.000
    H522     H        0.98618    0.87975    0.43412    1.000
    H523     H        0.04693    0.10058    0.49562    1.000
    H524     H        0.06927    0.07220    0.39208    1.000
    H525     H        0.02555    0.68071    0.16939    1.000
    H526     H        0.94598    0.55240    0.06639    1.000
    H527     H        0.10493    0.55184    0.00432    1.000
    H528     H        0.18020    0.67765    0.10799    1.000
    H529     H        0.68157    0.01117    0.65605    1.000
    H530     H        0.55300    0.98439    0.60705    1.000
    H531     H        0.55137    0.04704    0.44798    1.000
    H532     H        0.67716    0.06978    0.49816    1.000
    H533     H        0.85613    0.02676    0.84453    1.000
    H534     H        0.87700    0.94632    0.89210    1.000
    H535     H        0.10090    0.10729    0.05498    1.000
    H536     H        0.07205    0.18168    0.00311    1.000
    H537     H        0.52627    0.35702    0.34799    1.000
    H538     H        0.44739    0.38135    0.39749    1.000
    H539     H        0.60241    0.60436    0.54846    1.000
    H540     H        0.67711    0.57501    0.49743    1.000
    H541     H        0.50859    0.17822    0.15131    1.000
    H542     H        0.48332    0.04982    0.10177    1.000
    H543     H        0.55505    0.05371    0.95053    1.000
    H544     H        0.57678    0.17945    0.00157    1.000
    H545     H        0.36345    0.50735    0.82780    1.000
    H546     H        0.38430    0.48142    0.92978    1.000
    H547     H        0.60946    0.55760    0.00616    1.000
    H548     H        0.58332    0.58160    0.90338    1.000
    H549     H        0.17907    0.53489    0.67158    1.000
    H550     H        0.05112    0.45385    0.56960    1.000
    H551     H        0.05094    0.60310    0.49384    1.000
    H552     H        0.17768    0.67966    0.59665    1.000
    H553     H        0.93906    0.10930    0.63095    1.000
    H554     H        0.95633    0.08142    0.52320    1.000
    H555     H        0.05069    0.94596    0.57282    1.000
    H556     H        0.02482    0.97133    0.67472    1.000
    H557     H        0.97818    0.30855    0.86904    1.000
    H558     H        0.05821    0.43359    0.97667    1.000
    H559     H        0.87328    0.47853    0.92756    1.000
    H560     H        0.79655    0.35071    0.82583    1.000
    H561     H        0.30926    0.94150    0.33108    1.000
    H562     H        0.43412    0.95862    0.37624    1.000
    H563     H        0.47571    0.04217    0.60439    1.000
    H564     H        0.34842    0.01762    0.55291    1.000
    H565     H        0.11079    0.97811    0.16869    1.000
    H566     H        0.08265    0.05769    0.12340    1.000
    H567     H        0.93562    0.87080    0.89594    1.000
    H568     H        0.96309    0.79514    0.94749    1.000
