# CIF file generated by openbabel 3.1.0, see https://openbabel.org
data_I
_chemical_name_common 'OHAQEU_clean'
_cell_length_a 10.7551
_cell_length_b 10.7551
_cell_length_c 10.7551
_cell_angle_alpha 104.041
_cell_angle_beta 112.253
_cell_angle_gamma 112.253
_space_group_name_H-M_alt 'P 1'
_space_group_name_Hall 'P 1'
loop_
    _symmetry_equiv_pos_as_xyz
    x,y,z
loop_
    _atom_site_label
    _atom_site_type_symbol
    _atom_site_fract_x
    _atom_site_fract_y
    _atom_site_fract_z
    _atom_site_occupancy
    Nb1      Nb       0.00000    0.24964    0.24964    1.000
    Nb2      Nb       0.00000    0.75036    0.75036    1.000
    Fe1      Fe       0.49202    0.80115    0.69087    1.000
    Fe2      Fe       0.50798    0.19885    0.30913    1.000
    Fe3      Fe       0.88972    0.69087    0.19885    1.000
    Fe4      Fe       0.11028    0.30913    0.80115    1.000
    C1       C        0.78080    0.07641    0.02381    1.000
    C2       C        0.80001    0.19042    0.29223    1.000
    C3       C        0.21920    0.24301    0.29561    1.000
    C4       C        0.19999    0.49222    0.39041    1.000
    C5       C        0.94740    0.02381    0.24301    1.000
    C6       C        0.10181    0.29223    0.49222    1.000
    C7       C        0.05260    0.29561    0.07641    1.000
    C8       C        0.89819    0.39041    0.19042    1.000
    C9       C        0.21920    0.92359    0.97619    1.000
    C10      C        0.19999    0.80958    0.70777    1.000
    C11      C        0.78080    0.75699    0.70439    1.000
    C12      C        0.80001    0.50778    0.60959    1.000
    C13      C        0.05260    0.97619    0.75699    1.000
    C14      C        0.89819    0.70777    0.50778    1.000
    C15      C        0.94740    0.70439    0.92359    1.000
    C16      C        0.10181    0.60959    0.80958    1.000
    N1       N        0.66807    0.98349    0.91176    1.000
    N2       N        0.69393    0.16478    0.30643    1.000
    N3       N        0.33193    0.24369    0.31542    1.000
    N4       N        0.30607    0.61250    0.47085    1.000
    N5       N        0.92827    0.91176    0.24369    1.000
    N6       N        0.14165    0.30643    0.61250    1.000
    N7       N        0.07173    0.31542    0.98349    1.000
    N8       N        0.85835    0.47085    0.16478    1.000
    N9       N        0.33193    0.01651    0.08824    1.000
    N10      N        0.30607    0.83522    0.69357    1.000
    N11      N        0.66807    0.75631    0.68458    1.000
    N12      N        0.69393    0.38750    0.52915    1.000
    N13      N        0.07173    0.08824    0.75631    1.000
    N14      N        0.85835    0.69357    0.38750    1.000
    N15      N        0.92827    0.68458    0.01651    1.000
    N16      N        0.14165    0.52915    0.83522    1.000
