# CIF file generated by openbabel 3.1.0, see https://openbabel.org
data_I
_chemical_name_common 'image0'
_cell_length_a 9.88
_cell_length_b 9.88
_cell_length_c 13.333
_cell_angle_alpha 90
_cell_angle_beta 90
_cell_angle_gamma 90
_space_group_name_H-M_alt 'P 1'
_space_group_name_Hall 'P 1'
loop_
    _symmetry_equiv_pos_as_xyz
    x,y,z
loop_
    _atom_site_label
    _atom_site_type_symbol
    _atom_site_fract_x
    _atom_site_fract_y
    _atom_site_fract_z
    _atom_site_occupancy
    Co1      Co       0.89604    0.14064    0.69823    1.000
    P1       P        0.67284    0.38461    0.67912    1.000
    O1       O        0.88580    0.05880    0.56480    1.000
    O2       O        0.81010    0.31650    0.67880    1.000
    O3       O        0.58300    0.32350    0.76200    1.000
    O4       O        0.69500    0.53660    0.69880    1.000
    O5       O        0.60690    0.36680    0.57530    1.000
    Co2      Co       0.10396    0.85936    0.69823    1.000
    P2       P        0.32716    0.61539    0.67912    1.000
    O6       O        0.11420    0.94120    0.56480    1.000
    O7       O        0.18990    0.68350    0.67880    1.000
    O8       O        0.41700    0.67650    0.76200    1.000
    O9       O        0.30500    0.46340    0.69880    1.000
    O10      O        0.39310    0.63320    0.57530    1.000
    Co3      Co       0.14064    0.10396    0.30177    1.000
    P3       P        0.38461    0.32716    0.32088    1.000
    O11      O        0.05880    0.11420    0.43520    1.000
    O12      O        0.31650    0.18990    0.32120    1.000
    O13      O        0.32350    0.41700    0.23800    1.000
    O14      O        0.53660    0.30500    0.30120    1.000
    O15      O        0.36680    0.39310    0.42470    1.000
    Co4      Co       0.85936    0.89604    0.30177    1.000
    P4       P        0.61539    0.67284    0.32088    1.000
    O16      O        0.94120    0.88580    0.43520    1.000
    O17      O        0.68350    0.81010    0.32120    1.000
    O18      O        0.67650    0.58300    0.23800    1.000
    O19      O        0.46340    0.69500    0.30120    1.000
    O20      O        0.63320    0.60690    0.42470    1.000
    Co5      Co       0.60396    0.64064    0.80177    1.000
    P5       P        0.82716    0.88461    0.82088    1.000
    O21      O        0.61420    0.55880    0.93520    1.000
    O22      O        0.68990    0.81650    0.82120    1.000
    O23      O        0.91700    0.82350    0.73800    1.000
    O24      O        0.80500    0.03660    0.80120    1.000
    O25      O        0.89310    0.86680    0.92470    1.000
    Co6      Co       0.39604    0.35936    0.80177    1.000
    P6       P        0.17284    0.11539    0.82088    1.000
    O26      O        0.38580    0.44120    0.93520    1.000
    O27      O        0.31010    0.18350    0.82120    1.000
    O28      O        0.08300    0.17650    0.73800    1.000
    O29      O        0.19500    0.96340    0.80120    1.000
    O30      O        0.10690    0.13320    0.92470    1.000
    Co7      Co       0.35936    0.60396    0.19823    1.000
    P7       P        0.11539    0.82716    0.17912    1.000
    O31      O        0.44120    0.61420    0.06480    1.000
    O32      O        0.18350    0.68990    0.17880    1.000
    O33      O        0.17650    0.91700    0.26200    1.000
    O34      O        0.96340    0.80500    0.19880    1.000
    O35      O        0.13320    0.89310    0.07530    1.000
    Co8      Co       0.64064    0.39604    0.19823    1.000
    P8       P        0.88461    0.17284    0.17912    1.000
    O36      O        0.55880    0.38580    0.06480    1.000
    O37      O        0.81650    0.31010    0.17880    1.000
    O38      O        0.82350    0.08300    0.26200    1.000
    O39      O        0.03660    0.19500    0.19880    1.000
    O40      O        0.86680    0.10690    0.07530    1.000
    Co9      Co       0.50000    0.50000    0.50000    1.000
    Co10     Co       0.00000    0.00000    0.00000    1.000
    P9       P        0.00000    0.00000    0.50000    1.000
    P10      P        0.50000    0.50000    0.00000    1.000
