# CIF file generated by openbabel 3.1.0, see https://openbabel.org
data_I
_chemical_name_common 'image0'
_cell_length_a 26.78
_cell_length_b 19.963
_cell_length_c 12.98
_cell_angle_alpha 90
_cell_angle_beta 90
_cell_angle_gamma 90
_space_group_name_H-M_alt 'P 1'
_space_group_name_Hall 'P 1'
loop_
    _symmetry_equiv_pos_as_xyz
    x,y,z
loop_
    _atom_site_label
    _atom_site_type_symbol
    _atom_site_fract_x
    _atom_site_fract_y
    _atom_site_fract_z
    _atom_site_occupancy
    W1       W        0.15436    0.16726    0.47766    1.000
    W2       W        0.26523    0.07694    0.39263    1.000
    W3       W        0.26661    0.16761    0.63458    1.000
    W4       W        0.26503    0.15932    0.17322    1.000
    W5       W        0.36667    0.15871    0.31769    1.000
    Co1      Co       0.24085    0.89105    0.39910    1.000
    O1       O        0.19880    0.10620    0.41150    1.000
    O2       O        0.37590    0.18240    0.45590    1.000
    O3       O        0.23890    0.88410    0.23740    1.000
    O4       O        0.24250    0.87190    0.55300    1.000
    O5       O        0.20060    0.16950    0.58830    1.000
    O6       O        0.33650    0.18430    0.64430    1.000
    O7       O        0.33630    0.07790    0.36500    1.000
    O8       O        0.19920    0.18480    0.20300    1.000
    O9       O        0.12620    0.18230    0.34380    1.000
    O10      O        0.33550    0.14520    0.18800    1.000
    O11      O        0.27820    0.10570    0.52970    1.000
    O12      O        0.25430    0.07800    0.24800    1.000
    O13      O        0.28140    0.18680    0.34500    1.000
    O14      O        0.25800    0.99220    0.41080    1.000
    C1       C        0.03410    0.91730    0.31430    1.000
    C2       C        0.02640    0.85650    0.26240    1.000
    H1       H        0.05010    0.82240    0.26470    1.000
    C3       C        0.99830    0.96710    0.31470    1.000
    H2       H        0.00350    0.00690    0.35040    1.000
    C4       C        0.08730    0.96590    0.44400    1.000
    H3       H        0.06300    0.99080    0.47730    1.000
    C5       C        0.13780    0.96200    0.47100    1.000
    H4       H        0.15250    0.98560    0.52490    1.000
    C6       C        0.12470    0.90110    0.33340    1.000
    H5       H        0.12920    0.87520    0.27460    1.000
    C7       C        0.98120    0.84900    0.20600    1.000
    H6       H        0.97630    0.81070    0.16670    1.000
    C8       C        0.95240    0.95580    0.25780    1.000
    H7       H        0.92790    0.98880    0.25450    1.000
    C9       C        0.94580    0.89540    0.20910    1.000
    C10      C        0.85330    0.90150    0.18000    1.000
    H8       H        0.84470    0.92580    0.23850    1.000
    C11      C        0.89810    0.84470    0.06510    1.000
    H9       H        0.92390    0.82400    0.02930    1.000
    N1       N        0.81900    0.87810    0.10790    1.000
    N2       N        0.90090    0.88440    0.15450    1.000
    C12      C        0.84720    0.84390    0.04350    1.000
    H10      H        0.83400    0.82090    0.98740    1.000
    N3       N        0.16310    0.91810    0.40630    1.000
    N4       N        0.08050    0.92880    0.36400    1.000
    W6       W        0.34564    0.83274    0.97766    1.000
    W7       W        0.23477    0.92306    0.89263    1.000
    W8       W        0.23339    0.83239    0.13458    1.000
    W9       W        0.23497    0.84068    0.67322    1.000
    W10      W        0.13333    0.84129    0.81769    1.000
    Co2      Co       0.25915    0.10895    0.89910    1.000
    O15      O        0.30120    0.89380    0.91150    1.000
    O16      O        0.12410    0.81760    0.95590    1.000
    O17      O        0.26110    0.11590    0.73740    1.000
    O18      O        0.25750    0.12810    0.05300    1.000
    O19      O        0.29940    0.83050    0.08830    1.000
    O20      O        0.16350    0.81570    0.14430    1.000
    O21      O        0.16370    0.92210    0.86500    1.000
    O22      O        0.30080    0.81520    0.70300    1.000
    O23      O        0.37380    0.81770    0.84380    1.000
    O24      O        0.16450    0.85480    0.68800    1.000
    O25      O        0.22180    0.89430    0.02970    1.000
    O26      O        0.24570    0.92200    0.74800    1.000
    O27      O        0.21860    0.81320    0.84500    1.000
    O28      O        0.24200    0.00780    0.91080    1.000
    C13      C        0.46590    0.08270    0.81430    1.000
    C14      C        0.47360    0.14350    0.76240    1.000
    H11      H        0.44990    0.17760    0.76470    1.000
    C15      C        0.50170    0.03290    0.81470    1.000
    H12      H        0.49650    0.99310    0.85040    1.000
    C16      C        0.41270    0.03410    0.94400    1.000
    H13      H        0.43700    0.00920    0.97730    1.000
    C17      C        0.36220    0.03800    0.97100    1.000
    H14      H        0.34750    0.01440    0.02490    1.000
    C18      C        0.37530    0.09890    0.83340    1.000
    H15      H        0.37080    0.12480    0.77460    1.000
    C19      C        0.51880    0.15100    0.70600    1.000
    H16      H        0.52370    0.18930    0.66670    1.000
    C20      C        0.54760    0.04420    0.75780    1.000
    H17      H        0.57210    0.01120    0.75450    1.000
    C21      C        0.55420    0.10460    0.70910    1.000
    C22      C        0.64670    0.09850    0.68000    1.000
    H18      H        0.65530    0.07420    0.73850    1.000
    C23      C        0.60190    0.15530    0.56510    1.000
    H19      H        0.57610    0.17600    0.52930    1.000
    N5       N        0.68100    0.12190    0.60790    1.000
    N6       N        0.59910    0.11560    0.65450    1.000
    C24      C        0.65280    0.15610    0.54350    1.000
    H20      H        0.66600    0.17910    0.48740    1.000
    N7       N        0.33690    0.08190    0.90630    1.000
    N8       N        0.41950    0.07120    0.86400    1.000
    W11      W        0.84564    0.66726    0.52234    1.000
    W12      W        0.73477    0.57694    0.60737    1.000
    W13      W        0.73339    0.66761    0.36542    1.000
    W14      W        0.73497    0.65932    0.82678    1.000
    W15      W        0.63333    0.65871    0.68231    1.000
    Co3      Co       0.75915    0.39105    0.60090    1.000
    O29      O        0.80120    0.60620    0.58850    1.000
    O30      O        0.62410    0.68240    0.54410    1.000
    O31      O        0.76110    0.38410    0.76260    1.000
    O32      O        0.75750    0.37190    0.44700    1.000
    O33      O        0.79940    0.66950    0.41170    1.000
    O34      O        0.66350    0.68430    0.35570    1.000
    O35      O        0.66370    0.57790    0.63500    1.000
    O36      O        0.80080    0.68480    0.79700    1.000
    O37      O        0.87380    0.68230    0.65620    1.000
    O38      O        0.66450    0.64520    0.81200    1.000
    O39      O        0.72180    0.60570    0.47030    1.000
    O40      O        0.74570    0.57800    0.75200    1.000
    O41      O        0.71860    0.68680    0.65500    1.000
    O42      O        0.74200    0.49220    0.58920    1.000
    C25      C        0.96590    0.41730    0.68570    1.000
    C26      C        0.97360    0.35650    0.73760    1.000
    H21      H        0.94990    0.32240    0.73530    1.000
    C27      C        0.00170    0.46710    0.68530    1.000
    H22      H        0.99650    0.50690    0.64960    1.000
    C28      C        0.91270    0.46590    0.55600    1.000
    H23      H        0.93700    0.49080    0.52270    1.000
    C29      C        0.86220    0.46200    0.52900    1.000
    H24      H        0.84750    0.48560    0.47510    1.000
    C30      C        0.87530    0.40110    0.66660    1.000
    H25      H        0.87080    0.37520    0.72540    1.000
    C31      C        0.01880    0.34900    0.79400    1.000
    H26      H        0.02370    0.31070    0.83330    1.000
    C32      C        0.04760    0.45580    0.74220    1.000
    H27      H        0.07210    0.48880    0.74550    1.000
    C33      C        0.05420    0.39540    0.79090    1.000
    C34      C        0.14670    0.40150    0.82000    1.000
    H28      H        0.15530    0.42580    0.76150    1.000
    C35      C        0.10190    0.34470    0.93490    1.000
    H29      H        0.07610    0.32400    0.97070    1.000
    N9       N        0.18100    0.37810    0.89210    1.000
    N10      N        0.09910    0.38440    0.84550    1.000
    C36      C        0.15280    0.34390    0.95650    1.000
    H30      H        0.16600    0.32090    0.01260    1.000
    N11      N        0.83690    0.41810    0.59370    1.000
    N12      N        0.91950    0.42880    0.63600    1.000
    W16      W        0.65436    0.33274    0.02234    1.000
    W17      W        0.76523    0.42306    0.10737    1.000
    W18      W        0.76661    0.33239    0.86542    1.000
    W19      W        0.76503    0.34068    0.32678    1.000
    W20      W        0.86667    0.34129    0.18231    1.000
    Co4      Co       0.74085    0.60895    0.10090    1.000
    O43      O        0.69880    0.39380    0.08850    1.000
    O44      O        0.87590    0.31760    0.04410    1.000
    O45      O        0.73890    0.61590    0.26260    1.000
    O46      O        0.74250    0.62810    0.94700    1.000
    O47      O        0.70060    0.33050    0.91170    1.000
    O48      O        0.83650    0.31570    0.85570    1.000
    O49      O        0.83630    0.42210    0.13500    1.000
    O50      O        0.69920    0.31520    0.29700    1.000
    O51      O        0.62620    0.31770    0.15620    1.000
    O52      O        0.83550    0.35480    0.31200    1.000
    O53      O        0.77820    0.39430    0.97030    1.000
    O54      O        0.75430    0.42200    0.25200    1.000
    O55      O        0.78140    0.31320    0.15500    1.000
    O56      O        0.75800    0.50780    0.08920    1.000
    C37      C        0.53410    0.58270    0.18570    1.000
    C38      C        0.52640    0.64350    0.23760    1.000
    H31      H        0.55010    0.67760    0.23530    1.000
    C39      C        0.49830    0.53290    0.18530    1.000
    H32      H        0.50350    0.49310    0.14960    1.000
    C40      C        0.58730    0.53410    0.05600    1.000
    H33      H        0.56300    0.50920    0.02270    1.000
    C41      C        0.63780    0.53800    0.02900    1.000
    H34      H        0.65250    0.51440    0.97510    1.000
    C42      C        0.62470    0.59890    0.16660    1.000
    H35      H        0.62920    0.62480    0.22540    1.000
    C43      C        0.48120    0.65100    0.29400    1.000
    H36      H        0.47630    0.68930    0.33330    1.000
    C44      C        0.45240    0.54420    0.24220    1.000
    H37      H        0.42790    0.51120    0.24550    1.000
    C45      C        0.44580    0.60460    0.29090    1.000
    C46      C        0.35330    0.59850    0.32000    1.000
    H38      H        0.34470    0.57420    0.26150    1.000
    C47      C        0.39810    0.65530    0.43490    1.000
    H39      H        0.42390    0.67600    0.47070    1.000
    N13      N        0.31900    0.62190    0.39210    1.000
    N14      N        0.40090    0.61560    0.34550    1.000
    C48      C        0.34720    0.65610    0.45650    1.000
    H40      H        0.33400    0.67910    0.51260    1.000
    N15      N        0.66310    0.58190    0.09370    1.000
    N16      N        0.58050    0.57120    0.13600    1.000
    W21      W        0.84564    0.83274    0.52234    1.000
    W22      W        0.73477    0.92306    0.60737    1.000
    W23      W        0.73339    0.83239    0.36542    1.000
    W24      W        0.73497    0.84068    0.82678    1.000
    W25      W        0.63333    0.84129    0.68231    1.000
    Co5      Co       0.75915    0.10895    0.60090    1.000
    O57      O        0.80120    0.89380    0.58850    1.000
    O58      O        0.62410    0.81760    0.54410    1.000
    O59      O        0.76110    0.11590    0.76260    1.000
    O60      O        0.75750    0.12810    0.44700    1.000
    O61      O        0.79940    0.83050    0.41170    1.000
    O62      O        0.66350    0.81570    0.35570    1.000
    O63      O        0.66370    0.92210    0.63500    1.000
    O64      O        0.80080    0.81520    0.79700    1.000
    O65      O        0.87380    0.81770    0.65620    1.000
    O66      O        0.66450    0.85480    0.81200    1.000
    O67      O        0.72180    0.89430    0.47030    1.000
    O68      O        0.74570    0.92200    0.75200    1.000
    O69      O        0.71860    0.81320    0.65500    1.000
    O70      O        0.74200    0.00780    0.58920    1.000
    C49      C        0.96590    0.08270    0.68570    1.000
    C50      C        0.97360    0.14350    0.73760    1.000
    H41      H        0.94990    0.17760    0.73530    1.000
    C51      C        0.00170    0.03290    0.68530    1.000
    H42      H        0.99650    0.99310    0.64960    1.000
    C52      C        0.91270    0.03410    0.55600    1.000
    H43      H        0.93700    0.00920    0.52270    1.000
    C53      C        0.86220    0.03800    0.52900    1.000
    H44      H        0.84750    0.01440    0.47510    1.000
    C54      C        0.87530    0.09890    0.66660    1.000
    H45      H        0.87080    0.12480    0.72540    1.000
    C55      C        0.01880    0.15100    0.79400    1.000
    H46      H        0.02370    0.18930    0.83330    1.000
    C56      C        0.04760    0.04420    0.74220    1.000
    H47      H        0.07210    0.01120    0.74550    1.000
    C57      C        0.05420    0.10460    0.79090    1.000
    C58      C        0.14670    0.09850    0.82000    1.000
    H48      H        0.15530    0.07420    0.76150    1.000
    C59      C        0.10190    0.15530    0.93490    1.000
    H49      H        0.07610    0.17600    0.97070    1.000
    N17      N        0.18100    0.12190    0.89210    1.000
    N18      N        0.09910    0.11560    0.84550    1.000
    C60      C        0.15280    0.15610    0.95650    1.000
    H50      H        0.16600    0.17910    0.01260    1.000
    N19      N        0.83690    0.08190    0.59370    1.000
    N20      N        0.91950    0.07120    0.63600    1.000
    W26      W        0.65436    0.16726    0.02234    1.000
    W27      W        0.76523    0.07694    0.10737    1.000
    W28      W        0.76661    0.16761    0.86542    1.000
    W29      W        0.76503    0.15932    0.32678    1.000
    W30      W        0.86667    0.15871    0.18231    1.000
    Co6      Co       0.74085    0.89105    0.10090    1.000
    O71      O        0.69880    0.10620    0.08850    1.000
    O72      O        0.87590    0.18240    0.04410    1.000
    O73      O        0.73890    0.88410    0.26260    1.000
    O74      O        0.74250    0.87190    0.94700    1.000
    O75      O        0.70060    0.16950    0.91170    1.000
    O76      O        0.83650    0.18430    0.85570    1.000
    O77      O        0.83630    0.07790    0.13500    1.000
    O78      O        0.69920    0.18480    0.29700    1.000
    O79      O        0.62620    0.18230    0.15620    1.000
    O80      O        0.83550    0.14520    0.31200    1.000
    O81      O        0.77820    0.10570    0.97030    1.000
    O82      O        0.75430    0.07800    0.25200    1.000
    O83      O        0.78140    0.18680    0.15500    1.000
    O84      O        0.75800    0.99220    0.08920    1.000
    C61      C        0.53410    0.91730    0.18570    1.000
    C62      C        0.52640    0.85650    0.23760    1.000
    H51      H        0.55010    0.82240    0.23530    1.000
    C63      C        0.49830    0.96710    0.18530    1.000
    H52      H        0.50350    0.00690    0.14960    1.000
    C64      C        0.58730    0.96590    0.05600    1.000
    H53      H        0.56300    0.99080    0.02270    1.000
    C65      C        0.63780    0.96200    0.02900    1.000
    H54      H        0.65250    0.98560    0.97510    1.000
    C66      C        0.62470    0.90110    0.16660    1.000
    H55      H        0.62920    0.87520    0.22540    1.000
    C67      C        0.48120    0.84900    0.29400    1.000
    H56      H        0.47630    0.81070    0.33330    1.000
    C68      C        0.45240    0.95580    0.24220    1.000
    H57      H        0.42790    0.98880    0.24550    1.000
    C69      C        0.44580    0.89540    0.29090    1.000
    C70      C        0.35330    0.90150    0.32000    1.000
    H58      H        0.34470    0.92580    0.26150    1.000
    C71      C        0.39810    0.84470    0.43490    1.000
    H59      H        0.42390    0.82400    0.47070    1.000
    N21      N        0.31900    0.87810    0.39210    1.000
    N22      N        0.40090    0.88440    0.34550    1.000
    C72      C        0.34720    0.84390    0.45650    1.000
    H60      H        0.33400    0.82090    0.51260    1.000
    N23      N        0.66310    0.91810    0.09370    1.000
    N24      N        0.58050    0.92880    0.13600    1.000
    W31      W        0.15436    0.33274    0.47766    1.000
    W32      W        0.26523    0.42306    0.39263    1.000
    W33      W        0.26661    0.33239    0.63458    1.000
    W34      W        0.26503    0.34068    0.17322    1.000
    W35      W        0.36667    0.34129    0.31769    1.000
    Co7      Co       0.24085    0.60895    0.39910    1.000
    O85      O        0.19880    0.39380    0.41150    1.000
    O86      O        0.37590    0.31760    0.45590    1.000
    O87      O        0.23890    0.61590    0.23740    1.000
    O88      O        0.24250    0.62810    0.55300    1.000
    O89      O        0.20060    0.33050    0.58830    1.000
    O90      O        0.33650    0.31570    0.64430    1.000
    O91      O        0.33630    0.42210    0.36500    1.000
    O92      O        0.19920    0.31520    0.20300    1.000
    O93      O        0.12620    0.31770    0.34380    1.000
    O94      O        0.33550    0.35480    0.18800    1.000
    O95      O        0.27820    0.39430    0.52970    1.000
    O96      O        0.25430    0.42200    0.24800    1.000
    O97      O        0.28140    0.31320    0.34500    1.000
    O98      O        0.25800    0.50780    0.41080    1.000
    C73      C        0.03410    0.58270    0.31430    1.000
    C74      C        0.02640    0.64350    0.26240    1.000
    H61      H        0.05010    0.67760    0.26470    1.000
    C75      C        0.99830    0.53290    0.31470    1.000
    H62      H        0.00350    0.49310    0.35040    1.000
    C76      C        0.08730    0.53410    0.44400    1.000
    H63      H        0.06300    0.50920    0.47730    1.000
    C77      C        0.13780    0.53800    0.47100    1.000
    H64      H        0.15250    0.51440    0.52490    1.000
    C78      C        0.12470    0.59890    0.33340    1.000
    H65      H        0.12920    0.62480    0.27460    1.000
    C79      C        0.98120    0.65100    0.20600    1.000
    H66      H        0.97630    0.68930    0.16670    1.000
    C80      C        0.95240    0.54420    0.25780    1.000
    H67      H        0.92790    0.51120    0.25450    1.000
    C81      C        0.94580    0.60460    0.20910    1.000
    C82      C        0.85330    0.59850    0.18000    1.000
    H68      H        0.84470    0.57420    0.23850    1.000
    C83      C        0.89810    0.65530    0.06510    1.000
    H69      H        0.92390    0.67600    0.02930    1.000
    N25      N        0.81900    0.62190    0.10790    1.000
    N26      N        0.90090    0.61560    0.15450    1.000
    C84      C        0.84720    0.65610    0.04350    1.000
    H70      H        0.83400    0.67910    0.98740    1.000
    N27      N        0.16310    0.58190    0.40630    1.000
    N28      N        0.08050    0.57120    0.36400    1.000
    W36      W        0.34564    0.66726    0.97766    1.000
    W37      W        0.23477    0.57694    0.89263    1.000
    W38      W        0.23339    0.66761    0.13458    1.000
    W39      W        0.23497    0.65932    0.67322    1.000
    W40      W        0.13333    0.65871    0.81769    1.000
    Co8      Co       0.25915    0.39105    0.89910    1.000
    O99      O        0.30120    0.60620    0.91150    1.000
    O100     O        0.12410    0.68240    0.95590    1.000
    O101     O        0.26110    0.38410    0.73740    1.000
    O102     O        0.25750    0.37190    0.05300    1.000
    O103     O        0.29940    0.66950    0.08830    1.000
    O104     O        0.16350    0.68430    0.14430    1.000
    O105     O        0.16370    0.57790    0.86500    1.000
    O106     O        0.30080    0.68480    0.70300    1.000
    O107     O        0.37380    0.68230    0.84380    1.000
    O108     O        0.16450    0.64520    0.68800    1.000
    O109     O        0.22180    0.60570    0.02970    1.000
    O110     O        0.24570    0.57800    0.74800    1.000
    O111     O        0.21860    0.68680    0.84500    1.000
    O112     O        0.24200    0.49220    0.91080    1.000
    C85      C        0.46590    0.41730    0.81430    1.000
    C86      C        0.47360    0.35650    0.76240    1.000
    H71      H        0.44990    0.32240    0.76470    1.000
    C87      C        0.50170    0.46710    0.81470    1.000
    H72      H        0.49650    0.50690    0.85040    1.000
    C88      C        0.41270    0.46590    0.94400    1.000
    H73      H        0.43700    0.49080    0.97730    1.000
    C89      C        0.36220    0.46200    0.97100    1.000
    H74      H        0.34750    0.48560    0.02490    1.000
    C90      C        0.37530    0.40110    0.83340    1.000
    H75      H        0.37080    0.37520    0.77460    1.000
    C91      C        0.51880    0.34900    0.70600    1.000
    H76      H        0.52370    0.31070    0.66670    1.000
    C92      C        0.54760    0.45580    0.75780    1.000
    H77      H        0.57210    0.48880    0.75450    1.000
    C93      C        0.55420    0.39540    0.70910    1.000
    C94      C        0.64670    0.40150    0.68000    1.000
    H78      H        0.65530    0.42580    0.73850    1.000
    C95      C        0.60190    0.34470    0.56510    1.000
    H79      H        0.57610    0.32400    0.52930    1.000
    N29      N        0.68100    0.37810    0.60790    1.000
    N30      N        0.59910    0.38440    0.65450    1.000
    C96      C        0.65280    0.34390    0.54350    1.000
    H80      H        0.66600    0.32090    0.48740    1.000
    N31      N        0.33690    0.41810    0.90630    1.000
    N32      N        0.41950    0.42880    0.86400    1.000
    W41      W        0.15367    0.25000    0.25651    1.000
    W42      W        0.36756    0.25000    0.56014    1.000
    B1       B        0.26280    0.25000    0.40100    1.000
    O113     O        0.12580    0.25000    0.52060    1.000
    O114     O        0.25520    0.25000    0.70710    1.000
    O115     O        0.28250    0.25000    0.51330    1.000
    O116     O        0.20630    0.25000    0.40280    1.000
    O117     O        0.37580    0.25000    0.28200    1.000
    O118     O        0.27770    0.25000    0.14280    1.000
    W43      W        0.34633    0.75000    0.75651    1.000
    W44      W        0.13244    0.75000    0.06014    1.000
    B2       B        0.23720    0.75000    0.90100    1.000
    O119     O        0.37420    0.75000    0.02060    1.000
    O120     O        0.24480    0.75000    0.20710    1.000
    O121     O        0.21750    0.75000    0.01330    1.000
    O122     O        0.29370    0.75000    0.90280    1.000
    O123     O        0.12420    0.75000    0.78200    1.000
    O124     O        0.22230    0.75000    0.64280    1.000
    W45      W        0.84633    0.75000    0.74349    1.000
    W46      W        0.63244    0.75000    0.43986    1.000
    B3       B        0.73720    0.75000    0.59900    1.000
    O125     O        0.87420    0.75000    0.47940    1.000
    O126     O        0.74480    0.75000    0.29290    1.000
    O127     O        0.71750    0.75000    0.48670    1.000
    O128     O        0.79370    0.75000    0.59720    1.000
    O129     O        0.62420    0.75000    0.71800    1.000
    O130     O        0.72230    0.75000    0.85720    1.000
    W47      W        0.65367    0.25000    0.24349    1.000
    W48      W        0.86756    0.25000    0.93986    1.000
    B4       B        0.76280    0.25000    0.09900    1.000
    O131     O        0.62580    0.25000    0.97940    1.000
    O132     O        0.75520    0.25000    0.79290    1.000
    O133     O        0.78250    0.25000    0.98670    1.000
    O134     O        0.70630    0.25000    0.09720    1.000
    O135     O        0.87580    0.25000    0.21800    1.000
    O136     O        0.77770    0.25000    0.35720    1.000
