# CIF file generated by openbabel 3.1.0, see https://openbabel.org
data_I
_chemical_name_common 'ROGLOP_clean'
_cell_length_a 7.4933
_cell_length_b 14.0605
_cell_length_c 14.0605
_cell_angle_alpha 97.7136
_cell_angle_beta 101.341
_cell_angle_gamma 101.341
_space_group_name_H-M_alt 'P 1'
_space_group_name_Hall 'P 1'
loop_
    _symmetry_equiv_pos_as_xyz
    x,y,z
loop_
    _atom_site_label
    _atom_site_type_symbol
    _atom_site_fract_x
    _atom_site_fract_y
    _atom_site_fract_z
    _atom_site_occupancy
    Ni1      Ni       0.75000    0.41123    0.58877    1.000
    Ni2      Ni       0.25000    0.58877    0.41123    1.000
    Ni3      Ni       0.50000    0.00000    0.00000    1.000
    Ni4      Ni       0.00000    0.00000    0.00000    1.000
    H1       H        0.63100    0.13530    0.36830    1.000
    H2       H        0.58230    0.01940    0.22860    1.000
    H3       H        0.59930    0.33950    0.19710    1.000
    H4       H        0.54520    0.21710    0.06210    1.000
    H5       H        0.88400    0.23690    0.61910    1.000
    H6       H        0.89760    0.12290    0.72870    1.000
    H7       H        0.86900    0.63170    0.86470    1.000
    H8       H        0.91770    0.77140    0.98060    1.000
    H9       H        0.90070    0.80290    0.66050    1.000
    H10      H        0.95480    0.93790    0.78290    1.000
    H11      H        0.61600    0.38090    0.76310    1.000
    H12      H        0.60240    0.27130    0.87710    1.000
    H13      H        0.36900    0.86470    0.63170    1.000
    H14      H        0.41770    0.98060    0.77140    1.000
    H15      H        0.40070    0.66050    0.80290    1.000
    H16      H        0.45480    0.78290    0.93790    1.000
    H17      H        0.11600    0.76310    0.38090    1.000
    H18      H        0.10240    0.87710    0.27130    1.000
    H19      H        0.13100    0.36830    0.13530    1.000
    H20      H        0.08230    0.22860    0.01940    1.000
    H21      H        0.09930    0.19710    0.33950    1.000
    H22      H        0.04520    0.06210    0.21710    1.000
    H23      H        0.38400    0.61910    0.23690    1.000
    H24      H        0.39760    0.72870    0.12290    1.000
    C1       C        0.61520    0.15398    0.30674    1.000
    C2       C        0.62180    0.25192    0.29858    1.000
    C3       C        0.58470    0.08459    0.22205    1.000
    C4       C        0.65870    0.33108    0.38818    1.000
    C5       C        0.59570    0.27468    0.20562    1.000
    C6       C        0.56380    0.20039    0.12447    1.000
    C7       C        0.83210    0.24002    0.67398    1.000
    C8       C        0.83680    0.17394    0.73786    1.000
    C9       C        0.88480    0.69326    0.84602    1.000
    C10      C        0.87820    0.70142    0.74808    1.000
    C11      C        0.91530    0.77795    0.91541    1.000
    C12      C        0.84130    0.61182    0.66892    1.000
    C13      C        0.90430    0.79438    0.72532    1.000
    C14      C        0.93620    0.87553    0.79961    1.000
    C15      C        0.66790    0.32602    0.75998    1.000
    C16      C        0.66320    0.26214    0.82606    1.000
    C17      C        0.38480    0.84602    0.69326    1.000
    C18      C        0.37820    0.74808    0.70142    1.000
    C19      C        0.41530    0.91541    0.77795    1.000
    C20      C        0.34130    0.66892    0.61182    1.000
    C21      C        0.40430    0.72532    0.79438    1.000
    C22      C        0.43620    0.79961    0.87553    1.000
    C23      C        0.16790    0.75998    0.32602    1.000
    C24      C        0.16320    0.82606    0.26214    1.000
    C25      C        0.11520    0.30674    0.15398    1.000
    C26      C        0.12180    0.29858    0.25192    1.000
    C27      C        0.08470    0.22205    0.08459    1.000
    C28      C        0.15870    0.38818    0.33108    1.000
    C29      C        0.09570    0.20562    0.27468    1.000
    C30      C        0.06380    0.12447    0.20039    1.000
    C31      C        0.33210    0.67398    0.24002    1.000
    C32      C        0.33680    0.73786    0.17394    1.000
    C33      C        0.75000    0.11314    0.88686    1.000
    C34      C        0.75000    0.18426    0.81574    1.000
    C35      C        0.25000    0.88686    0.11314    1.000
    C36      C        0.25000    0.81574    0.18426    1.000
    N1       N        0.55870    0.10617    0.13145    1.000
    N2       N        0.94130    0.86855    0.89383    1.000
    N3       N        0.44130    0.89383    0.86855    1.000
    N4       N        0.05870    0.13145    0.10617    1.000
    N5       N        0.75000    0.31582    0.68418    1.000
    N6       N        0.25000    0.68418    0.31582    1.000
    N7       N        0.25000    0.04645    0.95355    1.000
    N8       N        0.25000    0.10234    0.89766    1.000
    N9       N        0.25000    0.15630    0.84370    1.000
    N10      N        0.75000    0.95355    0.04645    1.000
    N11      N        0.75000    0.89766    0.10234    1.000
    N12      N        0.75000    0.84370    0.15630    1.000
    O1       O        0.62640    0.10943    0.93573    1.000
    O2       O        0.67070    0.41879    0.37653    1.000
    O3       O        0.67610    0.30313    0.47075    1.000
    O4       O        0.87360    0.06427    0.89057    1.000
    O5       O        0.82930    0.62347    0.58121    1.000
    O6       O        0.82390    0.52925    0.69687    1.000
    O7       O        0.37360    0.89057    0.06427    1.000
    O8       O        0.32930    0.58121    0.62347    1.000
    O9       O        0.32390    0.69687    0.52925    1.000
    O10      O        0.12640    0.93573    0.10943    1.000
    O11      O        0.17070    0.37653    0.41879    1.000
    O12      O        0.17610    0.47075    0.30313    1.000
