# CIF file generated by openbabel 3.1.0, see https://openbabel.org
data_I
_chemical_name_common 'VAZLIT_clean'
_cell_length_a 7.3173
_cell_length_b 9.7022
_cell_length_c 14.7083
_cell_angle_alpha 90
_cell_angle_beta 99.5206
_cell_angle_gamma 90
_space_group_name_H-M_alt 'P 1'
_space_group_name_Hall 'P 1'
loop_
    _symmetry_equiv_pos_as_xyz
    x,y,z
loop_
    _atom_site_label
    _atom_site_type_symbol
    _atom_site_fract_x
    _atom_site_fract_y
    _atom_site_fract_z
    _atom_site_occupancy
    Gd1      Gd       0.63620    0.44495    0.35744    1.000
    Gd2      Gd       0.86380    0.94495    0.14256    1.000
    Gd3      Gd       0.36380    0.55505    0.64256    1.000
    Gd4      Gd       0.13620    0.05505    0.85744    1.000
    H1       H        0.72250    0.95300    0.62420    1.000
    H2       H        0.81900    0.16510    0.54520    1.000
    H3       H        0.77750    0.45300    0.87580    1.000
    H4       H        0.68100    0.66510    0.95480    1.000
    H5       H        0.27750    0.04700    0.37580    1.000
    H6       H        0.18100    0.83490    0.45480    1.000
    H7       H        0.22250    0.54700    0.12420    1.000
    H8       H        0.31900    0.33490    0.04520    1.000
    C1       C        0.60570    0.72660    0.49660    1.000
    C2       C        0.68840    0.86500    0.49660    1.000
    C3       C        0.72920    0.96210    0.56190    1.000
    C4       C        0.78400    0.08060    0.51780    1.000
    C5       C        0.77570    0.04730    0.42810    1.000
    C6       C        0.81210    0.12430    0.34720    1.000
    C7       C        0.95720    0.46490    0.53850    1.000
    C8       C        0.89430    0.22660    0.00340    1.000
    C9       C        0.81160    0.36500    0.00340    1.000
    C10      C        0.77080    0.46210    0.93810    1.000
    C11      C        0.71600    0.58060    0.98220    1.000
    C12      C        0.72430    0.54730    0.07190    1.000
    C13      C        0.68790    0.62430    0.15280    1.000
    C14      C        0.54280    0.96490    0.96150    1.000
    C15      C        0.39430    0.27340    0.50340    1.000
    C16      C        0.31160    0.13500    0.50340    1.000
    C17      C        0.27080    0.03790    0.43810    1.000
    C18      C        0.21600    0.91940    0.48220    1.000
    C19      C        0.22430    0.95270    0.57190    1.000
    C20      C        0.18790    0.87570    0.65280    1.000
    C21      C        0.04280    0.53510    0.46150    1.000
    C22      C        0.10570    0.77340    0.99660    1.000
    C23      C        0.18840    0.63500    0.99660    1.000
    C24      C        0.22920    0.53790    0.06190    1.000
    C25      C        0.28400    0.41940    0.01780    1.000
    C26      C        0.27570    0.45270    0.92810    1.000
    C27      C        0.31210    0.37570    0.84720    1.000
    C28      C        0.45720    0.03510    0.03850    1.000
    O1       O        0.79280    0.42430    0.51780    1.000
    O2       O        0.58770    0.65950    0.42320    1.000
    O3       O        0.56150    0.68820    0.57120    1.000
    O4       O        0.71680    0.91430    0.41310    1.000
    O5       O        0.83580    0.25290    0.35670    1.000
    O6       O        0.82160    0.06000    0.27490    1.000
    O7       O        0.05750    0.45370    0.61590    1.000
    O8       O        0.70720    0.92430    0.98220    1.000
    O9       O        0.91230    0.15950    0.07680    1.000
    O10      O        0.93850    0.18820    0.92880    1.000
    O11      O        0.78320    0.41430    0.08690    1.000
    O12      O        0.66420    0.75290    0.14330    1.000
    O13      O        0.67840    0.56000    0.22510    1.000
    O14      O        0.44250    0.95370    0.88410    1.000
    O15      O        0.20720    0.57570    0.48220    1.000
    O16      O        0.41230    0.34050    0.57680    1.000
    O17      O        0.43850    0.31180    0.42880    1.000
    O18      O        0.28320    0.08570    0.58690    1.000
    O19      O        0.16420    0.74710    0.64330    1.000
    O20      O        0.17840    0.94000    0.72510    1.000
    O21      O        0.94250    0.54630    0.38410    1.000
    O22      O        0.29280    0.07570    0.01780    1.000
    O23      O        0.08770    0.84050    0.92320    1.000
    O24      O        0.06150    0.81180    0.07120    1.000
    O25      O        0.21680    0.58570    0.91310    1.000
    O26      O        0.33580    0.24710    0.85670    1.000
    O27      O        0.32160    0.44000    0.77490    1.000
    O28      O        0.55750    0.04630    0.11590    1.000
