# CIF file generated by openbabel 3.1.0, see https://openbabel.org
data_I
_chemical_name_common 'image0'
_cell_length_a 17.0531
_cell_length_b 17.0531
_cell_length_c 10.7397
_cell_angle_alpha 90
_cell_angle_beta 90
_cell_angle_gamma 90
_space_group_name_H-M_alt 'P 1'
_space_group_name_Hall 'P 1'
loop_
    _symmetry_equiv_pos_as_xyz
    x,y,z
loop_
    _atom_site_label
    _atom_site_type_symbol
    _atom_site_fract_x
    _atom_site_fract_y
    _atom_site_fract_z
    _atom_site_occupancy
    W1       W        0.33813    0.94138    0.19340    1.000
    P1       P        0.36522    0.83297    0.44620    1.000
    O1       O        0.42680    0.93110    0.10800    1.000
    O2       O        0.25030    0.96650    0.33170    1.000
    O3       O        0.29300    0.85030    0.16490    1.000
    O4       O        0.39260    0.89480    0.34860    1.000
    O5       O        0.34010    0.75750    0.38310    1.000
    O6       O        0.29570    0.86850    0.52110    1.000
    O7       O        0.43410    0.82150    0.53420    1.000
    W2       W        0.83813    0.44138    0.69340    1.000
    P2       P        0.86522    0.33297    0.94620    1.000
    O8       O        0.92680    0.43110    0.60800    1.000
    O9       O        0.75030    0.46650    0.83170    1.000
    O10      O        0.79300    0.35030    0.66490    1.000
    O11      O        0.89260    0.39480    0.84860    1.000
    O12      O        0.84010    0.25750    0.88310    1.000
    O13      O        0.79570    0.36850    0.02110    1.000
    O14      O        0.93410    0.32150    0.03420    1.000
    W3       W        0.16187    0.05862    0.69340    1.000
    P3       P        0.13478    0.16703    0.94620    1.000
    O15      O        0.07320    0.06890    0.60800    1.000
    O16      O        0.24970    0.03350    0.83170    1.000
    O17      O        0.20700    0.14970    0.66490    1.000
    O18      O        0.10740    0.10520    0.84860    1.000
    O19      O        0.15990    0.24250    0.88310    1.000
    O20      O        0.20430    0.13150    0.02110    1.000
    O21      O        0.06590    0.17850    0.03420    1.000
    W4       W        0.66187    0.55862    0.19340    1.000
    P4       P        0.63478    0.66703    0.44620    1.000
    O22      O        0.57320    0.56890    0.10800    1.000
    O23      O        0.74970    0.53350    0.33170    1.000
    O24      O        0.70700    0.64970    0.16490    1.000
    O25      O        0.60740    0.60520    0.34860    1.000
    O26      O        0.65990    0.74250    0.38310    1.000
    O27      O        0.70430    0.63150    0.52110    1.000
    O28      O        0.56590    0.67850    0.53420    1.000
    W5       W        0.80862    0.58813    0.44340    1.000
    P5       P        0.91703    0.61522    0.69620    1.000
    O29      O        0.81890    0.67680    0.35800    1.000
    O30      O        0.78350    0.50030    0.58170    1.000
    O31      O        0.89970    0.54300    0.41490    1.000
    O32      O        0.85520    0.64260    0.59860    1.000
    O33      O        0.99250    0.59010    0.63310    1.000
    O34      O        0.88150    0.54570    0.77110    1.000
    O35      O        0.92850    0.68410    0.78420    1.000
    W6       W        0.30862    0.08813    0.94340    1.000
    P6       P        0.41703    0.11522    0.19620    1.000
    O36      O        0.31890    0.17680    0.85800    1.000
    O37      O        0.28350    0.00030    0.08170    1.000
    O38      O        0.39970    0.04300    0.91490    1.000
    O39      O        0.35520    0.14260    0.09860    1.000
    O40      O        0.49250    0.09010    0.13310    1.000
    O41      O        0.38150    0.04570    0.27110    1.000
    O42      O        0.42850    0.18410    0.28420    1.000
    W7       W        0.69138    0.41187    0.94340    1.000
    P7       P        0.58297    0.38478    0.19620    1.000
    O43      O        0.68110    0.32320    0.85800    1.000
    O44      O        0.71650    0.49970    0.08170    1.000
    O45      O        0.60030    0.45700    0.91490    1.000
    O46      O        0.64480    0.35740    0.09860    1.000
    O47      O        0.50750    0.40990    0.13310    1.000
    O48      O        0.61850    0.45430    0.27110    1.000
    O49      O        0.57150    0.31590    0.28420    1.000
    W8       W        0.19138    0.91187    0.44340    1.000
    P8       P        0.08297    0.88478    0.69620    1.000
    O50      O        0.18110    0.82320    0.35800    1.000
    O51      O        0.21650    0.99970    0.58170    1.000
    O52      O        0.10030    0.95700    0.41490    1.000
    O53      O        0.14480    0.85740    0.59860    1.000
    O54      O        0.00750    0.90990    0.63310    1.000
    O55      O        0.11850    0.95430    0.77110    1.000
    O56      O        0.07150    0.81590    0.78420    1.000
    W9       W        0.66187    0.05862    0.80660    1.000
    P9       P        0.63478    0.16703    0.55380    1.000
    O57      O        0.57320    0.06890    0.89200    1.000
    O58      O        0.74970    0.03350    0.66830    1.000
    O59      O        0.70700    0.14970    0.83510    1.000
    O60      O        0.60740    0.10520    0.65140    1.000
    O61      O        0.65990    0.24250    0.61690    1.000
    O62      O        0.70430    0.13150    0.47890    1.000
    O63      O        0.56590    0.17850    0.46580    1.000
    W10      W        0.16187    0.55862    0.30660    1.000
    P10      P        0.13478    0.66703    0.05380    1.000
    O64      O        0.07320    0.56890    0.39200    1.000
    O65      O        0.24970    0.53350    0.16830    1.000
    O66      O        0.20700    0.64970    0.33510    1.000
    O67      O        0.10740    0.60520    0.15140    1.000
    O68      O        0.15990    0.74250    0.11690    1.000
    O69      O        0.20430    0.63150    0.97890    1.000
    O70      O        0.06590    0.67850    0.96580    1.000
    W11      W        0.83813    0.94138    0.30660    1.000
    P11      P        0.86522    0.83297    0.05380    1.000
    O71      O        0.92680    0.93110    0.39200    1.000
    O72      O        0.75030    0.96650    0.16830    1.000
    O73      O        0.79300    0.85030    0.33510    1.000
    O74      O        0.89260    0.89480    0.15140    1.000
    O75      O        0.84010    0.75750    0.11690    1.000
    O76      O        0.79570    0.86850    0.97890    1.000
    O77      O        0.93410    0.82150    0.96580    1.000
    W12      W        0.33813    0.44138    0.80660    1.000
    P12      P        0.36522    0.33297    0.55380    1.000
    O78      O        0.42680    0.43110    0.89200    1.000
    O79      O        0.25030    0.46650    0.66830    1.000
    O80      O        0.29300    0.35030    0.83510    1.000
    O81      O        0.39260    0.39480    0.65140    1.000
    O82      O        0.34010    0.25750    0.61690    1.000
    O83      O        0.29570    0.36850    0.47890    1.000
    O84      O        0.43410    0.32150    0.46580    1.000
    W13      W        0.19138    0.41187    0.55660    1.000
    P13      P        0.08297    0.38478    0.30380    1.000
    O85      O        0.18110    0.32320    0.64200    1.000
    O86      O        0.21650    0.49970    0.41830    1.000
    O87      O        0.10030    0.45700    0.58510    1.000
    O88      O        0.14480    0.35740    0.40140    1.000
    O89      O        0.00750    0.40990    0.36690    1.000
    O90      O        0.11850    0.45430    0.22890    1.000
    O91      O        0.07150    0.31590    0.21580    1.000
    W14      W        0.69138    0.91187    0.05660    1.000
    P14      P        0.58297    0.88478    0.80380    1.000
    O92      O        0.68110    0.82320    0.14200    1.000
    O93      O        0.71650    0.99970    0.91830    1.000
    O94      O        0.60030    0.95700    0.08510    1.000
    O95      O        0.64480    0.85740    0.90140    1.000
    O96      O        0.50750    0.90990    0.86690    1.000
    O97      O        0.61850    0.95430    0.72890    1.000
    O98      O        0.57150    0.81590    0.71580    1.000
    W15      W        0.30862    0.58813    0.05660    1.000
    P15      P        0.41703    0.61522    0.80380    1.000
    O99      O        0.31890    0.67680    0.14200    1.000
    O100     O        0.28350    0.50030    0.91830    1.000
    O101     O        0.39970    0.54300    0.08510    1.000
    O102     O        0.35520    0.64260    0.90140    1.000
    O103     O        0.49250    0.59010    0.86690    1.000
    O104     O        0.38150    0.54570    0.72890    1.000
    O105     O        0.42850    0.68410    0.71580    1.000
    W16      W        0.80862    0.08813    0.55660    1.000
    P16      P        0.91703    0.11522    0.30380    1.000
    O106     O        0.81890    0.17680    0.64200    1.000
    O107     O        0.78350    0.00030    0.41830    1.000
    O108     O        0.89970    0.04300    0.58510    1.000
    O109     O        0.85520    0.14260    0.40140    1.000
    O110     O        0.99250    0.09010    0.36690    1.000
    O111     O        0.88150    0.04570    0.22890    1.000
    O112     O        0.92850    0.18410    0.21580    1.000
    Ni1      Ni       0.50000    0.75000    0.62500    1.000
    Ni2      Ni       0.00000    0.25000    0.12500    1.000
    Ni3      Ni       0.00000    0.75000    0.87500    1.000
    Ni4      Ni       0.50000    0.25000    0.37500    1.000
    Ni5      Ni       0.25000    0.75000    0.25000    1.000
    Ni6      Ni       0.25000    0.25000    0.75000    1.000
    Ni7      Ni       0.00000    0.50000    0.50000    1.000
    Ni8      Ni       0.50000    0.00000    0.00000    1.000
    Ni9      Ni       0.50000    0.50000    0.00000    1.000
    Ni10     Ni       0.00000    0.00000    0.50000    1.000
    Ni11     Ni       0.75000    0.25000    0.75000    1.000
    Ni12     Ni       0.75000    0.75000    0.25000    1.000
