# CIF file generated by openbabel 3.1.0, see https://openbabel.org
data_I
_chemical_name_common 'YAYLIV_clean'
_cell_length_a 12.074
_cell_length_b 12.709
_cell_length_c 13.947
_cell_angle_alpha 90
_cell_angle_beta 90
_cell_angle_gamma 115.481
_space_group_name_H-M_alt 'P 1'
_space_group_name_Hall 'P 1'
loop_
    _symmetry_equiv_pos_as_xyz
    x,y,z
loop_
    _atom_site_label
    _atom_site_type_symbol
    _atom_site_fract_x
    _atom_site_fract_y
    _atom_site_fract_z
    _atom_site_occupancy
    Ba1      Ba       0.77810    0.15589    0.39531    1.000
    Ba2      Ba       0.60677    0.80395    0.29771    1.000
    Ba3      Ba       0.22190    0.34411    0.89531    1.000
    Ba4      Ba       0.39323    0.69605    0.79771    1.000
    Ba5      Ba       0.22190    0.84411    0.60469    1.000
    Ba6      Ba       0.39323    0.19605    0.70229    1.000
    Ba7      Ba       0.77810    0.65589    0.10469    1.000
    Ba8      Ba       0.60677    0.30395    0.20229    1.000
    U1       U        0.96864    0.01663    0.21519    1.000
    U2       U        0.39060    0.49519    0.17926    1.000
    U3       U        0.03136    0.48337    0.71519    1.000
    U4       U        0.60940    0.00481    0.67926    1.000
    U5       U        0.03136    0.98337    0.78481    1.000
    U6       U        0.60940    0.50481    0.82074    1.000
    U7       U        0.96864    0.51663    0.28481    1.000
    U8       U        0.39060    0.99519    0.32074    1.000
    P1       P        0.27024    0.20916    0.28944    1.000
    P2       P        0.10061    0.31932    0.29379    1.000
    P3       P        0.72976    0.29084    0.78944    1.000
    P4       P        0.89939    0.18068    0.79379    1.000
    P5       P        0.72976    0.79084    0.71056    1.000
    P6       P        0.89939    0.68068    0.70621    1.000
    P7       P        0.27024    0.70916    0.21056    1.000
    P8       P        0.10061    0.81932    0.20621    1.000
    H1       H        0.25400    0.33790    0.40190    1.000
    H2       H        0.14260    0.21460    0.41330    1.000
    H3       H        0.74600    0.16210    0.90190    1.000
    H4       H        0.85740    0.28540    0.91330    1.000
    H5       H        0.74600    0.66210    0.59810    1.000
    H6       H        0.85740    0.78540    0.58670    1.000
    H7       H        0.25400    0.83790    0.09810    1.000
    H8       H        0.14260    0.71460    0.08670    1.000
    C1       C        0.19370    0.27210    0.36710    1.000
    C2       C        0.80630    0.22790    0.86710    1.000
    C3       C        0.80630    0.72790    0.63290    1.000
    C4       C        0.19370    0.77210    0.13290    1.000
    O1       O        0.37660    0.31050    0.24170    1.000
    O2       O        0.17810    0.13640    0.21380    1.000
    O3       O        0.18400    0.38730    0.21140    1.000
    O4       O        0.31330    0.13510    0.35170    1.000
    O5       O        0.05130    0.39350    0.34920    1.000
    O6       O        0.99270    0.20710    0.26050    1.000
    O7       O        0.42400    0.54910    0.29880    1.000
    O8       O        0.35580    0.44680    0.05880    1.000
    O9       O        0.77600    0.93060    0.45640    1.000
    O10      O        0.62340    0.18950    0.74170    1.000
    O11      O        0.82190    0.36360    0.71380    1.000
    O12      O        0.81600    0.11270    0.71140    1.000
    O13      O        0.68670    0.36490    0.85170    1.000
    O14      O        0.94870    0.10650    0.84920    1.000
    O15      O        0.00730    0.29290    0.76050    1.000
    O16      O        0.57600    0.95090    0.79880    1.000
    O17      O        0.64420    0.05320    0.55880    1.000
    O18      O        0.22400    0.56940    0.95640    1.000
    O19      O        0.62340    0.68950    0.75830    1.000
    O20      O        0.82190    0.86360    0.78620    1.000
    O21      O        0.81600    0.61270    0.78860    1.000
    O22      O        0.68670    0.86490    0.64830    1.000
    O23      O        0.94870    0.60650    0.65080    1.000
    O24      O        0.00730    0.79290    0.73950    1.000
    O25      O        0.57600    0.45090    0.70120    1.000
    O26      O        0.64420    0.55320    0.94120    1.000
    O27      O        0.22400    0.06940    0.54360    1.000
    O28      O        0.37660    0.81050    0.25830    1.000
    O29      O        0.17810    0.63640    0.28620    1.000
    O30      O        0.18400    0.88730    0.28860    1.000
    O31      O        0.31330    0.63510    0.14830    1.000
    O32      O        0.05130    0.89350    0.15080    1.000
    O33      O        0.99270    0.70710    0.23950    1.000
    O34      O        0.42400    0.04910    0.20120    1.000
    O35      O        0.35580    0.94680    0.44120    1.000
    O36      O        0.77600    0.43060    0.04360    1.000
    F1       F        0.56800    0.47970    0.15830    1.000
    F2       F        0.55230    0.67140    0.13970    1.000
    F3       F        0.78710    0.01590    0.25980    1.000
    F4       F        0.80800    0.83630    0.19920    1.000
    F5       F        0.43200    0.02030    0.65830    1.000
    F6       F        0.44770    0.82860    0.63970    1.000
    F7       F        0.21290    0.48410    0.75980    1.000
    F8       F        0.19200    0.66370    0.69920    1.000
    F9       F        0.43200    0.52030    0.84170    1.000
    F10      F        0.44770    0.32860    0.86030    1.000
    F11      F        0.21290    0.98410    0.74020    1.000
    F12      F        0.19200    0.16370    0.80080    1.000
    F13      F        0.56800    0.97970    0.34170    1.000
    F14      F        0.55230    0.17140    0.36030    1.000
    F15      F        0.78710    0.51590    0.24020    1.000
    F16      F        0.80800    0.33630    0.30080    1.000
