# CIF file generated by openbabel 3.1.0, see https://openbabel.org
data_I
_chemical_name_common 'image0'
_cell_length_a 10.3363
_cell_length_b 11.2395
_cell_length_c 11.7729
_cell_angle_alpha 91.931
_cell_angle_beta 108.443
_cell_angle_gamma 109.729
_space_group_name_H-M_alt 'P 1'
_space_group_name_Hall 'P 1'
loop_
    _symmetry_equiv_pos_as_xyz
    x,y,z
loop_
    _atom_site_label
    _atom_site_type_symbol
    _atom_site_fract_x
    _atom_site_fract_y
    _atom_site_fract_z
    _atom_site_occupancy
    C1       C        0.31100    0.75900    0.84180    1.000
    C2       C        0.40800    0.88400    0.92290    1.000
    C3       C        0.37620    0.92280    0.01940    1.000
    H1       H        0.29240    0.87150    0.03290    1.000
    C4       C        0.53260    0.96200    0.90210    1.000
    C5       C        0.79450    0.50100    0.58150    1.000
    C6       C        0.64280    0.50040    0.54070    1.000
    C7       C        0.60390    0.57880    0.60570    1.000
    C8       C        0.53710    0.42050    0.43620    1.000
    H2       H        0.56140    0.36530    0.39350    1.000
    C9       C        0.02680    0.75280    0.50020    1.000
    C10      C        0.01580    0.88060    0.50190    1.000
    C11      C        0.99180    0.93430    0.39480    1.000
    H3       H        0.98860    0.89100    0.32470    1.000
    C12      C        0.02710    0.95020    0.60850    1.000
    C13      C        0.98210    0.43630    0.91200    1.000
    H4       H        0.93750    0.49600    0.89390    1.000
    C14      C        0.04740    0.29050    0.00350    1.000
    C15      C        0.10130    0.32250    0.90950    1.000
    C16      C        0.18690    0.25590    0.89170    1.000
    H5       H        0.22730    0.27220    0.83100    1.000
    C17      C        0.21200    0.16530    0.96400    1.000
    H6       H        0.26870    0.11970    0.95300    1.000
    C18      C        0.15000    0.14600    0.05400    1.000
    H7       H        0.16880    0.08510    0.10100    1.000
    C19      C        0.06200    0.20380    0.08370    1.000
    H8       H        0.02250    0.18780    0.14470    1.000
    N1       N        0.57200    0.94600    0.79620    1.000
    N2       N        0.70730    0.66500    0.71460    1.000
    N3       N        0.04000    0.90100    0.72200    1.000
    N4       N        0.06330    0.41360    0.84990    1.000
    N5       N        0.96990    0.36670    0.00240    1.000
    O1       O        0.19510    0.69520    0.85930    1.000
    O2       O        0.34380    0.72010    0.75820    1.000
    O3       O        0.87020    0.52950    0.69100    1.000
    O4       O        0.84280    0.46900    0.50280    1.000
    O5       O        0.98730    0.68570    0.39960    1.000
    O6       O        0.07000    0.71630    0.60110    1.000
    Eu1      Eu       0.10605    0.53368    0.67894    1.000
    C20      C        0.68900    0.24100    0.15820    1.000
    C21      C        0.59200    0.11600    0.07710    1.000
    C22      C        0.62380    0.07720    0.98060    1.000
    H9       H        0.70760    0.12850    0.96710    1.000
    C23      C        0.46740    0.03800    0.09790    1.000
    C24      C        0.20550    0.49900    0.41850    1.000
    C25      C        0.35720    0.49960    0.45930    1.000
    C26      C        0.39610    0.42120    0.39430    1.000
    C27      C        0.46290    0.57950    0.56380    1.000
    H10      H        0.43860    0.63470    0.60650    1.000
    C28      C        0.97320    0.24720    0.49980    1.000
    C29      C        0.98420    0.11940    0.49810    1.000
    C30      C        0.00820    0.06570    0.60520    1.000
    H11      H        0.01140    0.10900    0.67530    1.000
    C31      C        0.97290    0.04980    0.39150    1.000
    C32      C        0.01790    0.56370    0.08800    1.000
    H12      H        0.06250    0.50400    0.10610    1.000
    C33      C        0.95260    0.70950    0.99650    1.000
    C34      C        0.89870    0.67750    0.09050    1.000
    C35      C        0.81310    0.74410    0.10830    1.000
    H13      H        0.77270    0.72780    0.16900    1.000
    C36      C        0.78800    0.83470    0.03600    1.000
    H14      H        0.73130    0.88030    0.04700    1.000
    C37      C        0.85000    0.85400    0.94600    1.000
    H15      H        0.83120    0.91490    0.89900    1.000
    C38      C        0.93800    0.79620    0.91630    1.000
    H16      H        0.97750    0.81220    0.85530    1.000
    N6       N        0.42800    0.05400    0.20380    1.000
    N7       N        0.29270    0.33500    0.28540    1.000
    N8       N        0.96000    0.09900    0.27800    1.000
    N9       N        0.93670    0.58640    0.15010    1.000
    N10      N        0.03010    0.63330    0.99760    1.000
    O7       O        0.80490    0.30480    0.14070    1.000
    O8       O        0.65620    0.27990    0.24180    1.000
    O9       O        0.12980    0.47050    0.30900    1.000
    O10      O        0.15720    0.53100    0.49720    1.000
    O11      O        0.01270    0.31430    0.60040    1.000
    O12      O        0.93000    0.28370    0.39890    1.000
    Eu2      Eu       0.89395    0.46632    0.32106    1.000
