# CIF file generated by openbabel 3.1.0, see https://openbabel.org
data_I
_chemical_name_common 'image0'
_cell_length_a 22.0765
_cell_length_b 16.3158
_cell_length_c 25.68
_cell_angle_alpha 90
_cell_angle_beta 115.416
_cell_angle_gamma 90
_space_group_name_H-M_alt 'P 1'
_space_group_name_Hall 'P 1'
loop_
    _symmetry_equiv_pos_as_xyz
    x,y,z
loop_
    _atom_site_label
    _atom_site_type_symbol
    _atom_site_fract_x
    _atom_site_fract_y
    _atom_site_fract_z
    _atom_site_occupancy
    Ag1      Ag       0.82280    0.24959    0.86741    1.000
    Ag2      Ag       0.34348    0.45725    0.36767    1.000
    C1       C        0.00206    0.38270    0.99671    1.000
    H1       H        0.02150    0.38180    0.03680    1.000
    C2       C        0.03290    0.81200    0.41119    1.000
    H2       H        0.05440    0.79050    0.39000    1.000
    C3       C        0.12390    0.75750    0.50268    1.000
    C4       C        0.05978    0.80210    0.47046    1.000
    C5       C        0.27750    0.63690    0.00955    1.000
    H3       H        0.29830    0.63380    0.04960    1.000
    C6       C        0.23588    0.56670    0.38856    1.000
    H4       H        0.21400    0.56040    0.34880    1.000
    C7       C        0.21950    0.65050    0.89247    1.000
    H5       H        0.19930    0.65530    0.85250    1.000
    C8       C        0.94266    0.34240    0.96551    1.000
    H6       H        0.92230    0.31520    0.98560    1.000
    C9       C        0.09703    0.46860    0.00150    1.000
    C10      C        0.02603    0.83620    0.50012    1.000
    H7       H        0.04360    0.83200    0.54000    1.000
    C11      C        0.20969    0.72630    0.58792    1.000
    C12      C        0.96628    0.87610    0.46948    1.000
    H8       H        0.94370    0.89790    0.48960    1.000
    C13      C        0.03248    0.42470    0.96740    1.000
    C14      C        0.30580    0.50690    0.24289    1.000
    H9       H        0.34980    0.52430    0.26380    1.000
    C15      C        0.21522    0.59980    0.97813    1.000
    C16      C        0.17740    0.45670    0.18173    1.000
    H10      H        0.13340    0.43860    0.16180    1.000
    C17      C        0.00162    0.42450    0.90749    1.000
    H11      H        0.02020    0.45320    0.88660    1.000
    C18      C        0.32611    0.54060    0.47437    1.000
    H12      H        0.36780    0.51640    0.49480    1.000
    C19      C        0.24281    0.73610    0.65192    1.000
    C20      C        0.32660    0.70250    0.74469    1.000
    H13      H        0.36530    0.67340    0.76720    1.000
    C21      C        0.30760    0.67870    0.97963    1.000
    H14      H        0.34900    0.70340    0.00060    1.000
    C22      C        0.29848    0.58440    0.50512    1.000
    H15      H        0.32090    0.58860    0.54500    1.000
    C23      C        0.97348    0.85450    0.38442    1.000
    H16      H        0.95640    0.86250    0.34480    1.000
    C24      C        0.17909    0.50210    0.08844    1.000
    C25      C        0.20600    0.67270    0.50572    1.000
    C26      C        0.94273    0.38100    0.87967    1.000
    H17      H        0.92300    0.37980    0.83960    1.000
    C27      C        0.27680    0.51770    0.18374    1.000
    H18      H        0.30100    0.54120    0.16550    1.000
    C28      C        0.18585    0.60800    0.91853    1.000
    H19      H        0.14400    0.58510    0.89640    1.000
    C29      C        0.18198    0.55040    0.00718    1.000
    C30      C        0.21020    0.44820    0.24074    1.000
    H20      H        0.18730    0.42450    0.26000    1.000
    C31      C        0.23636    0.62200    0.47502    1.000
    C32      C        0.21073    0.49280    0.15211    1.000
    C33      C        0.20471    0.61170    0.41534    1.000
    H21      H        0.16290    0.63510    0.39380    1.000
    C34      C        0.21510    0.78780    0.67851    1.000
    H22      H        0.17730    0.81880    0.65670    1.000
    C35      C        0.24440    0.79290    0.73784    1.000
    H23      H        0.22550    0.82800    0.75530    1.000
    C36      C        0.30120    0.69450    0.68564    1.000
    H24      H        0.32270    0.66210    0.66890    1.000
    N1       N        0.91234    0.34010    0.90746    1.000
    N2       N        0.27410    0.47260    0.27180    1.000
    N3       N        0.27963    0.68523    0.92160    1.000
    N4       N        0.12583    0.50940    0.97338    1.000
    N5       N        0.12131    0.46200    0.05897    1.000
    N6       N        0.21046    0.54880    0.06488    1.000
    N7       N        0.29632    0.53110    0.41691    1.000
    N8       N        0.93886    0.88510    0.41184    1.000
    N9       N        0.29904    0.74940    0.77171    1.000
    N10      N        0.14806    0.71050    0.47292    1.000
    N11      N        0.15314    0.76830    0.55984    1.000
    N12      N        0.23848    0.67730    0.56333    1.000
    Ag3      Ag       0.32280    0.74959    0.86741    1.000
    Ag4      Ag       0.84348    0.95725    0.36767    1.000
    C37      C        0.50206    0.88270    0.99671    1.000
    H25      H        0.52150    0.88180    0.03680    1.000
    C38      C        0.53290    0.31200    0.41119    1.000
    H26      H        0.55440    0.29050    0.39000    1.000
    C39      C        0.62390    0.25750    0.50268    1.000
    C40      C        0.55978    0.30210    0.47046    1.000
    C41      C        0.77750    0.13690    0.00955    1.000
    H27      H        0.79830    0.13380    0.04960    1.000
    C42      C        0.73588    0.06670    0.38856    1.000
    H28      H        0.71400    0.06040    0.34880    1.000
    C43      C        0.71950    0.15050    0.89247    1.000
    H29      H        0.69930    0.15530    0.85250    1.000
    C44      C        0.44266    0.84240    0.96551    1.000
    H30      H        0.42230    0.81520    0.98560    1.000
    C45      C        0.59703    0.96860    0.00150    1.000
    C46      C        0.52603    0.33620    0.50012    1.000
    H31      H        0.54360    0.33200    0.54000    1.000
    C47      C        0.70969    0.22630    0.58792    1.000
    C48      C        0.46628    0.37610    0.46948    1.000
    H32      H        0.44370    0.39790    0.48960    1.000
    C49      C        0.53248    0.92470    0.96740    1.000
    C50      C        0.80580    0.00690    0.24289    1.000
    H33      H        0.84980    0.02430    0.26380    1.000
    C51      C        0.71522    0.09980    0.97813    1.000
    C52      C        0.67740    0.95670    0.18173    1.000
    H34      H        0.63340    0.93860    0.16180    1.000
    C53      C        0.50162    0.92450    0.90749    1.000
    H35      H        0.52020    0.95320    0.88660    1.000
    C54      C        0.82611    0.04060    0.47437    1.000
    H36      H        0.86780    0.01640    0.49480    1.000
    C55      C        0.74281    0.23610    0.65192    1.000
    C56      C        0.82660    0.20250    0.74469    1.000
    H37      H        0.86530    0.17340    0.76720    1.000
    C57      C        0.80760    0.17870    0.97963    1.000
    H38      H        0.84900    0.20340    0.00060    1.000
    C58      C        0.79848    0.08440    0.50512    1.000
    H39      H        0.82090    0.08860    0.54500    1.000
    C59      C        0.47348    0.35450    0.38442    1.000
    H40      H        0.45640    0.36250    0.34480    1.000
    C60      C        0.67909    0.00210    0.08844    1.000
    C61      C        0.70600    0.17270    0.50572    1.000
    C62      C        0.44273    0.88100    0.87967    1.000
    H41      H        0.42300    0.87980    0.83960    1.000
    C63      C        0.77680    0.01770    0.18374    1.000
    H42      H        0.80100    0.04120    0.16550    1.000
    C64      C        0.68585    0.10800    0.91853    1.000
    H43      H        0.64400    0.08510    0.89640    1.000
    C65      C        0.68198    0.05040    0.00718    1.000
    C66      C        0.71020    0.94820    0.24074    1.000
    H44      H        0.68730    0.92450    0.26000    1.000
    C67      C        0.73636    0.12200    0.47502    1.000
    C68      C        0.71073    0.99280    0.15211    1.000
    C69      C        0.70471    0.11170    0.41534    1.000
    H45      H        0.66290    0.13510    0.39380    1.000
    C70      C        0.71510    0.28780    0.67851    1.000
    H46      H        0.67730    0.31880    0.65670    1.000
    C71      C        0.74440    0.29290    0.73784    1.000
    H47      H        0.72550    0.32800    0.75530    1.000
    C72      C        0.80120    0.19450    0.68564    1.000
    H48      H        0.82270    0.16210    0.66890    1.000
    N13      N        0.41234    0.84010    0.90746    1.000
    N14      N        0.77410    0.97260    0.27180    1.000
    N15      N        0.77963    0.18523    0.92160    1.000
    N16      N        0.62583    0.00940    0.97338    1.000
    N17      N        0.62131    0.96200    0.05897    1.000
    N18      N        0.71046    0.04880    0.06488    1.000
    N19      N        0.79632    0.03110    0.41691    1.000
    N20      N        0.43886    0.38510    0.41184    1.000
    N21      N        0.79904    0.24940    0.77171    1.000
    N22      N        0.64806    0.21050    0.47292    1.000
    N23      N        0.65314    0.26830    0.55984    1.000
    N24      N        0.73848    0.17730    0.56333    1.000
    Ag5      Ag       0.17720    0.24959    0.63259    1.000
    Ag6      Ag       0.65652    0.45725    0.13233    1.000
    C73      C        0.99794    0.38270    0.50329    1.000
    H49      H        0.97850    0.38180    0.46320    1.000
    C74      C        0.96710    0.81200    0.08881    1.000
    H50      H        0.94560    0.79050    0.11000    1.000
    C75      C        0.87610    0.75750    0.99732    1.000
    C76      C        0.94022    0.80210    0.02954    1.000
    C77      C        0.72250    0.63690    0.49045    1.000
    H51      H        0.70170    0.63380    0.45040    1.000
    C78      C        0.76412    0.56670    0.11144    1.000
    H52      H        0.78600    0.56040    0.15120    1.000
    C79      C        0.78050    0.65050    0.60753    1.000
    H53      H        0.80070    0.65530    0.64750    1.000
    C80      C        0.05734    0.34240    0.53449    1.000
    H54      H        0.07770    0.31520    0.51440    1.000
    C81      C        0.90297    0.46860    0.49850    1.000
    C82      C        0.97397    0.83620    0.99988    1.000
    H55      H        0.95640    0.83200    0.96000    1.000
    C83      C        0.79031    0.72630    0.91208    1.000
    C84      C        0.03372    0.87610    0.03052    1.000
    H56      H        0.05630    0.89790    0.01040    1.000
    C85      C        0.96752    0.42470    0.53260    1.000
    C86      C        0.69420    0.50690    0.25711    1.000
    H57      H        0.65020    0.52430    0.23620    1.000
    C87      C        0.78478    0.59980    0.52187    1.000
    C88      C        0.82260    0.45670    0.31827    1.000
    H58      H        0.86660    0.43860    0.33820    1.000
    C89      C        0.99838    0.42450    0.59251    1.000
    H59      H        0.97980    0.45320    0.61340    1.000
    C90      C        0.67389    0.54060    0.02563    1.000
    H60      H        0.63220    0.51640    0.00520    1.000
    C91      C        0.75719    0.73610    0.84808    1.000
    C92      C        0.67340    0.70250    0.75531    1.000
    H61      H        0.63470    0.67340    0.73280    1.000
    C93      C        0.69240    0.67870    0.52037    1.000
    H62      H        0.65100    0.70340    0.49940    1.000
    C94      C        0.70152    0.58440    0.99488    1.000
    H63      H        0.67910    0.58860    0.95500    1.000
    C95      C        0.02652    0.85450    0.11558    1.000
    H64      H        0.04360    0.86250    0.15520    1.000
    C96      C        0.82091    0.50210    0.41156    1.000
    C97      C        0.79400    0.67270    0.99428    1.000
    C98      C        0.05727    0.38100    0.62033    1.000
    H65      H        0.07700    0.37980    0.66040    1.000
    C99      C        0.72320    0.51770    0.31626    1.000
    H66      H        0.69900    0.54120    0.33450    1.000
    C100     C        0.81415    0.60800    0.58147    1.000
    H67      H        0.85600    0.58510    0.60360    1.000
    C101     C        0.81802    0.55040    0.49282    1.000
    C102     C        0.78980    0.44820    0.25926    1.000
    H68      H        0.81270    0.42450    0.24000    1.000
    C103     C        0.76364    0.62200    0.02498    1.000
    C104     C        0.78927    0.49280    0.34789    1.000
    C105     C        0.79529    0.61170    0.08466    1.000
    H69      H        0.83710    0.63510    0.10620    1.000
    C106     C        0.78490    0.78780    0.82149    1.000
    H70      H        0.82270    0.81880    0.84330    1.000
    C107     C        0.75560    0.79290    0.76216    1.000
    H71      H        0.77450    0.82800    0.74470    1.000
    C108     C        0.69880    0.69450    0.81436    1.000
    H72      H        0.67730    0.66210    0.83110    1.000
    N25      N        0.08766    0.34010    0.59254    1.000
    N26      N        0.72590    0.47260    0.22820    1.000
    N27      N        0.72037    0.68523    0.57840    1.000
    N28      N        0.87417    0.50940    0.52662    1.000
    N29      N        0.87869    0.46200    0.44103    1.000
    N30      N        0.78954    0.54880    0.43512    1.000
    N31      N        0.70368    0.53110    0.08309    1.000
    N32      N        0.06114    0.88510    0.08816    1.000
    N33      N        0.70096    0.74940    0.72829    1.000
    N34      N        0.85194    0.71050    0.02708    1.000
    N35      N        0.84686    0.76830    0.94016    1.000
    N36      N        0.76152    0.67730    0.93667    1.000
    Ag7      Ag       0.67720    0.74959    0.63259    1.000
    Ag8      Ag       0.15652    0.95725    0.13233    1.000
    C109     C        0.49794    0.88270    0.50329    1.000
    H73      H        0.47850    0.88180    0.46320    1.000
    C110     C        0.46710    0.31200    0.08881    1.000
    H74      H        0.44560    0.29050    0.11000    1.000
    C111     C        0.37610    0.25750    0.99732    1.000
    C112     C        0.44022    0.30210    0.02954    1.000
    C113     C        0.22250    0.13690    0.49045    1.000
    H75      H        0.20170    0.13380    0.45040    1.000
    C114     C        0.26412    0.06670    0.11144    1.000
    H76      H        0.28600    0.06040    0.15120    1.000
    C115     C        0.28050    0.15050    0.60753    1.000
    H77      H        0.30070    0.15530    0.64750    1.000
    C116     C        0.55734    0.84240    0.53449    1.000
    H78      H        0.57770    0.81520    0.51440    1.000
    C117     C        0.40297    0.96860    0.49850    1.000
    C118     C        0.47397    0.33620    0.99988    1.000
    H79      H        0.45640    0.33200    0.96000    1.000
    C119     C        0.29031    0.22630    0.91208    1.000
    C120     C        0.53372    0.37610    0.03052    1.000
    H80      H        0.55630    0.39790    0.01040    1.000
    C121     C        0.46752    0.92470    0.53260    1.000
    C122     C        0.19420    0.00690    0.25711    1.000
    H81      H        0.15020    0.02430    0.23620    1.000
    C123     C        0.28478    0.09980    0.52187    1.000
    C124     C        0.32260    0.95670    0.31827    1.000
    H82      H        0.36660    0.93860    0.33820    1.000
    C125     C        0.49838    0.92450    0.59251    1.000
    H83      H        0.47980    0.95320    0.61340    1.000
    C126     C        0.17389    0.04060    0.02563    1.000
    H84      H        0.13220    0.01640    0.00520    1.000
    C127     C        0.25719    0.23610    0.84808    1.000
    C128     C        0.17340    0.20250    0.75531    1.000
    H85      H        0.13470    0.17340    0.73280    1.000
    C129     C        0.19240    0.17870    0.52037    1.000
    H86      H        0.15100    0.20340    0.49940    1.000
    C130     C        0.20152    0.08440    0.99488    1.000
    H87      H        0.17910    0.08860    0.95500    1.000
    C131     C        0.52652    0.35450    0.11558    1.000
    H88      H        0.54360    0.36250    0.15520    1.000
    C132     C        0.32091    0.00210    0.41156    1.000
    C133     C        0.29400    0.17270    0.99428    1.000
    C134     C        0.55727    0.88100    0.62033    1.000
    H89      H        0.57700    0.87980    0.66040    1.000
    C135     C        0.22320    0.01770    0.31626    1.000
    H90      H        0.19900    0.04120    0.33450    1.000
    C136     C        0.31415    0.10800    0.58147    1.000
    H91      H        0.35600    0.08510    0.60360    1.000
    C137     C        0.31802    0.05040    0.49282    1.000
    C138     C        0.28980    0.94820    0.25926    1.000
    H92      H        0.31270    0.92450    0.24000    1.000
    C139     C        0.26364    0.12200    0.02498    1.000
    C140     C        0.28927    0.99280    0.34789    1.000
    C141     C        0.29529    0.11170    0.08466    1.000
    H93      H        0.33710    0.13510    0.10620    1.000
    C142     C        0.28490    0.28780    0.82149    1.000
    H94      H        0.32270    0.31880    0.84330    1.000
    C143     C        0.25560    0.29290    0.76216    1.000
    H95      H        0.27450    0.32800    0.74470    1.000
    C144     C        0.19880    0.19450    0.81436    1.000
    H96      H        0.17730    0.16210    0.83110    1.000
    N37      N        0.58766    0.84010    0.59254    1.000
    N38      N        0.22590    0.97260    0.22820    1.000
    N39      N        0.22037    0.18523    0.57840    1.000
    N40      N        0.37417    0.00940    0.52662    1.000
    N41      N        0.37869    0.96200    0.44103    1.000
    N42      N        0.28954    0.04880    0.43512    1.000
    N43      N        0.20368    0.03110    0.08309    1.000
    N44      N        0.56114    0.38510    0.08816    1.000
    N45      N        0.20096    0.24940    0.72829    1.000
    N46      N        0.35194    0.21050    0.02708    1.000
    N47      N        0.34686    0.26830    0.94016    1.000
    N48      N        0.26152    0.17730    0.93667    1.000
    Ag9      Ag       0.17720    0.75041    0.13259    1.000
    Ag10     Ag       0.65652    0.54275    0.63233    1.000
    C145     C        0.99794    0.61730    0.00329    1.000
    H97      H        0.97850    0.61820    0.96320    1.000
    C146     C        0.96710    0.18800    0.58881    1.000
    H98      H        0.94560    0.20950    0.61000    1.000
    C147     C        0.87610    0.24250    0.49732    1.000
    C148     C        0.94022    0.19790    0.52954    1.000
    C149     C        0.72250    0.36310    0.99045    1.000
    H99      H        0.70170    0.36620    0.95040    1.000
    C150     C        0.76412    0.43330    0.61144    1.000
    H100     H        0.78600    0.43960    0.65120    1.000
    C151     C        0.78050    0.34950    0.10753    1.000
    H101     H        0.80070    0.34470    0.14750    1.000
    C152     C        0.05734    0.65760    0.03449    1.000
    H102     H        0.07770    0.68480    0.01440    1.000
    C153     C        0.90297    0.53140    0.99850    1.000
    C154     C        0.97397    0.16380    0.49988    1.000
    H103     H        0.95640    0.16800    0.46000    1.000
    C155     C        0.79031    0.27370    0.41208    1.000
    C156     C        0.03372    0.12390    0.53052    1.000
    H104     H        0.05630    0.10210    0.51040    1.000
    C157     C        0.96752    0.57530    0.03260    1.000
    C158     C        0.69420    0.49310    0.75711    1.000
    H105     H        0.65020    0.47570    0.73620    1.000
    C159     C        0.78478    0.40020    0.02187    1.000
    C160     C        0.82260    0.54330    0.81827    1.000
    H106     H        0.86660    0.56140    0.83820    1.000
    C161     C        0.99838    0.57550    0.09251    1.000
    H107     H        0.97980    0.54680    0.11340    1.000
    C162     C        0.67389    0.45940    0.52563    1.000
    H108     H        0.63220    0.48360    0.50520    1.000
    C163     C        0.75719    0.26390    0.34808    1.000
    C164     C        0.67340    0.29750    0.25531    1.000
    H109     H        0.63470    0.32660    0.23280    1.000
    C165     C        0.69240    0.32130    0.02037    1.000
    H110     H        0.65100    0.29660    0.99940    1.000
    C166     C        0.70152    0.41560    0.49488    1.000
    H111     H        0.67910    0.41140    0.45500    1.000
    C167     C        0.02652    0.14550    0.61558    1.000
    H112     H        0.04360    0.13750    0.65520    1.000
    C168     C        0.82091    0.49790    0.91156    1.000
    C169     C        0.79400    0.32730    0.49428    1.000
    C170     C        0.05727    0.61900    0.12033    1.000
    H113     H        0.07700    0.62020    0.16040    1.000
    C171     C        0.72320    0.48230    0.81626    1.000
    H114     H        0.69900    0.45880    0.83450    1.000
    C172     C        0.81415    0.39200    0.08147    1.000
    H115     H        0.85600    0.41490    0.10360    1.000
    C173     C        0.81802    0.44960    0.99282    1.000
    C174     C        0.78980    0.55180    0.75926    1.000
    H116     H        0.81270    0.57550    0.74000    1.000
    C175     C        0.76364    0.37800    0.52498    1.000
    C176     C        0.78927    0.50720    0.84789    1.000
    C177     C        0.79529    0.38830    0.58466    1.000
    H117     H        0.83710    0.36490    0.60620    1.000
    C178     C        0.78490    0.21220    0.32149    1.000
    H118     H        0.82270    0.18120    0.34330    1.000
    C179     C        0.75560    0.20710    0.26216    1.000
    H119     H        0.77450    0.17200    0.24470    1.000
    C180     C        0.69880    0.30550    0.31436    1.000
    H120     H        0.67730    0.33790    0.33110    1.000
    N49      N        0.08766    0.65990    0.09254    1.000
    N50      N        0.72590    0.52740    0.72820    1.000
    N51      N        0.72037    0.31477    0.07840    1.000
    N52      N        0.87417    0.49060    0.02662    1.000
    N53      N        0.87869    0.53800    0.94103    1.000
    N54      N        0.78954    0.45120    0.93512    1.000
    N55      N        0.70368    0.46890    0.58309    1.000
    N56      N        0.06114    0.11490    0.58816    1.000
    N57      N        0.70096    0.25060    0.22829    1.000
    N58      N        0.85194    0.28950    0.52708    1.000
    N59      N        0.84686    0.23170    0.44016    1.000
    N60      N        0.76152    0.32270    0.43667    1.000
    Ag11     Ag       0.67720    0.25041    0.13259    1.000
    Ag12     Ag       0.15652    0.04275    0.63233    1.000
    C181     C        0.49794    0.11730    0.00329    1.000
    H121     H        0.47850    0.11820    0.96320    1.000
    C182     C        0.46710    0.68800    0.58881    1.000
    H122     H        0.44560    0.70950    0.61000    1.000
    C183     C        0.37610    0.74250    0.49732    1.000
    C184     C        0.44022    0.69790    0.52954    1.000
    C185     C        0.22250    0.86310    0.99045    1.000
    H123     H        0.20170    0.86620    0.95040    1.000
    C186     C        0.26412    0.93330    0.61144    1.000
    H124     H        0.28600    0.93960    0.65120    1.000
    C187     C        0.28050    0.84950    0.10753    1.000
    H125     H        0.30070    0.84470    0.14750    1.000
    C188     C        0.55734    0.15760    0.03449    1.000
    H126     H        0.57770    0.18480    0.01440    1.000
    C189     C        0.40297    0.03140    0.99850    1.000
    C190     C        0.47397    0.66380    0.49988    1.000
    H127     H        0.45640    0.66800    0.46000    1.000
    C191     C        0.29031    0.77370    0.41208    1.000
    C192     C        0.53372    0.62390    0.53052    1.000
    H128     H        0.55630    0.60210    0.51040    1.000
    C193     C        0.46752    0.07530    0.03260    1.000
    C194     C        0.19420    0.99310    0.75711    1.000
    H129     H        0.15020    0.97570    0.73620    1.000
    C195     C        0.28478    0.90020    0.02187    1.000
    C196     C        0.32260    0.04330    0.81827    1.000
    H130     H        0.36660    0.06140    0.83820    1.000
    C197     C        0.49838    0.07550    0.09251    1.000
    H131     H        0.47980    0.04680    0.11340    1.000
    C198     C        0.17389    0.95940    0.52563    1.000
    H132     H        0.13220    0.98360    0.50520    1.000
    C199     C        0.25719    0.76390    0.34808    1.000
    C200     C        0.17340    0.79750    0.25531    1.000
    H133     H        0.13470    0.82660    0.23280    1.000
    C201     C        0.19240    0.82130    0.02037    1.000
    H134     H        0.15100    0.79660    0.99940    1.000
    C202     C        0.20152    0.91560    0.49488    1.000
    H135     H        0.17910    0.91140    0.45500    1.000
    C203     C        0.52652    0.64550    0.61558    1.000
    H136     H        0.54360    0.63750    0.65520    1.000
    C204     C        0.32091    0.99790    0.91156    1.000
    C205     C        0.29400    0.82730    0.49428    1.000
    C206     C        0.55727    0.11900    0.12033    1.000
    H137     H        0.57700    0.12020    0.16040    1.000
    C207     C        0.22320    0.98230    0.81626    1.000
    H138     H        0.19900    0.95880    0.83450    1.000
    C208     C        0.31415    0.89200    0.08147    1.000
    H139     H        0.35600    0.91490    0.10360    1.000
    C209     C        0.31802    0.94960    0.99282    1.000
    C210     C        0.28980    0.05180    0.75926    1.000
    H140     H        0.31270    0.07550    0.74000    1.000
    C211     C        0.26364    0.87800    0.52498    1.000
    C212     C        0.28927    0.00720    0.84789    1.000
    C213     C        0.29529    0.88830    0.58466    1.000
    H141     H        0.33710    0.86490    0.60620    1.000
    C214     C        0.28490    0.71220    0.32149    1.000
    H142     H        0.32270    0.68120    0.34330    1.000
    C215     C        0.25560    0.70710    0.26216    1.000
    H143     H        0.27450    0.67200    0.24470    1.000
    C216     C        0.19880    0.80550    0.31436    1.000
    H144     H        0.17730    0.83790    0.33110    1.000
    N61      N        0.58766    0.15990    0.09254    1.000
    N62      N        0.22590    0.02740    0.72820    1.000
    N63      N        0.22037    0.81477    0.07840    1.000
    N64      N        0.37417    0.99060    0.02662    1.000
    N65      N        0.37869    0.03800    0.94103    1.000
    N66      N        0.28954    0.95120    0.93512    1.000
    N67      N        0.20368    0.96890    0.58309    1.000
    N68      N        0.56114    0.61490    0.58816    1.000
    N69      N        0.20096    0.75060    0.22829    1.000
    N70      N        0.35194    0.78950    0.52708    1.000
    N71      N        0.34686    0.73170    0.44016    1.000
    N72      N        0.26152    0.82270    0.43667    1.000
    Ag13     Ag       0.82280    0.75041    0.36741    1.000
    Ag14     Ag       0.34348    0.54275    0.86767    1.000
    C217     C        0.00206    0.61730    0.49671    1.000
    H145     H        0.02150    0.61820    0.53680    1.000
    C218     C        0.03290    0.18800    0.91119    1.000
    H146     H        0.05440    0.20950    0.89000    1.000
    C219     C        0.12390    0.24250    0.00268    1.000
    C220     C        0.05978    0.19790    0.97046    1.000
    C221     C        0.27750    0.36310    0.50955    1.000
    H147     H        0.29830    0.36620    0.54960    1.000
    C222     C        0.23588    0.43330    0.88856    1.000
    H148     H        0.21400    0.43960    0.84880    1.000
    C223     C        0.21950    0.34950    0.39247    1.000
    H149     H        0.19930    0.34470    0.35250    1.000
    C224     C        0.94266    0.65760    0.46551    1.000
    H150     H        0.92230    0.68480    0.48560    1.000
    C225     C        0.09703    0.53140    0.50150    1.000
    C226     C        0.02603    0.16380    0.00012    1.000
    H151     H        0.04360    0.16800    0.04000    1.000
    C227     C        0.20969    0.27370    0.08792    1.000
    C228     C        0.96628    0.12390    0.96948    1.000
    H152     H        0.94370    0.10210    0.98960    1.000
    C229     C        0.03248    0.57530    0.46740    1.000
    C230     C        0.30580    0.49310    0.74289    1.000
    H153     H        0.34980    0.47570    0.76380    1.000
    C231     C        0.21522    0.40020    0.47813    1.000
    C232     C        0.17740    0.54330    0.68173    1.000
    H154     H        0.13340    0.56140    0.66180    1.000
    C233     C        0.00162    0.57550    0.40749    1.000
    H155     H        0.02020    0.54680    0.38660    1.000
    C234     C        0.32611    0.45940    0.97437    1.000
    H156     H        0.36780    0.48360    0.99480    1.000
    C235     C        0.24281    0.26390    0.15192    1.000
    C236     C        0.32660    0.29750    0.24469    1.000
    H157     H        0.36530    0.32660    0.26720    1.000
    C237     C        0.30760    0.32130    0.47963    1.000
    H158     H        0.34900    0.29660    0.50060    1.000
    C238     C        0.29848    0.41560    0.00512    1.000
    H159     H        0.32090    0.41140    0.04500    1.000
    C239     C        0.97348    0.14550    0.88442    1.000
    H160     H        0.95640    0.13750    0.84480    1.000
    C240     C        0.17909    0.49790    0.58844    1.000
    C241     C        0.20600    0.32730    0.00572    1.000
    C242     C        0.94273    0.61900    0.37967    1.000
    H161     H        0.92300    0.62020    0.33960    1.000
    C243     C        0.27680    0.48230    0.68374    1.000
    H162     H        0.30100    0.45880    0.66550    1.000
    C244     C        0.18585    0.39200    0.41853    1.000
    H163     H        0.14400    0.41490    0.39640    1.000
    C245     C        0.18198    0.44960    0.50718    1.000
    C246     C        0.21020    0.55180    0.74074    1.000
    H164     H        0.18730    0.57550    0.76000    1.000
    C247     C        0.23636    0.37800    0.97502    1.000
    C248     C        0.21073    0.50720    0.65211    1.000
    C249     C        0.20471    0.38830    0.91534    1.000
    H165     H        0.16290    0.36490    0.89380    1.000
    C250     C        0.21510    0.21220    0.17851    1.000
    H166     H        0.17730    0.18120    0.15670    1.000
    C251     C        0.24440    0.20710    0.23784    1.000
    H167     H        0.22550    0.17200    0.25530    1.000
    C252     C        0.30120    0.30550    0.18564    1.000
    H168     H        0.32270    0.33790    0.16890    1.000
    N73      N        0.91234    0.65990    0.40746    1.000
    N74      N        0.27410    0.52740    0.77180    1.000
    N75      N        0.27963    0.31477    0.42160    1.000
    N76      N        0.12583    0.49060    0.47338    1.000
    N77      N        0.12131    0.53800    0.55897    1.000
    N78      N        0.21046    0.45120    0.56488    1.000
    N79      N        0.29632    0.46890    0.91691    1.000
    N80      N        0.93886    0.11490    0.91184    1.000
    N81      N        0.29904    0.25060    0.27171    1.000
    N82      N        0.14806    0.28950    0.97292    1.000
    N83      N        0.15314    0.23170    0.05984    1.000
    N84      N        0.23848    0.32270    0.06333    1.000
    Ag15     Ag       0.32280    0.25041    0.36741    1.000
    Ag16     Ag       0.84348    0.04275    0.86767    1.000
    C253     C        0.50206    0.11730    0.49671    1.000
    H169     H        0.52150    0.11820    0.53680    1.000
    C254     C        0.53290    0.68800    0.91119    1.000
    H170     H        0.55440    0.70950    0.89000    1.000
    C255     C        0.62390    0.74250    0.00268    1.000
    C256     C        0.55978    0.69790    0.97046    1.000
    C257     C        0.77750    0.86310    0.50955    1.000
    H171     H        0.79830    0.86620    0.54960    1.000
    C258     C        0.73588    0.93330    0.88856    1.000
    H172     H        0.71400    0.93960    0.84880    1.000
    C259     C        0.71950    0.84950    0.39247    1.000
    H173     H        0.69930    0.84470    0.35250    1.000
    C260     C        0.44266    0.15760    0.46551    1.000
    H174     H        0.42230    0.18480    0.48560    1.000
    C261     C        0.59703    0.03140    0.50150    1.000
    C262     C        0.52603    0.66380    0.00012    1.000
    H175     H        0.54360    0.66800    0.04000    1.000
    C263     C        0.70969    0.77370    0.08792    1.000
    C264     C        0.46628    0.62390    0.96948    1.000
    H176     H        0.44370    0.60210    0.98960    1.000
    C265     C        0.53248    0.07530    0.46740    1.000
    C266     C        0.80580    0.99310    0.74289    1.000
    H177     H        0.84980    0.97570    0.76380    1.000
    C267     C        0.71522    0.90020    0.47813    1.000
    C268     C        0.67740    0.04330    0.68173    1.000
    H178     H        0.63340    0.06140    0.66180    1.000
    C269     C        0.50162    0.07550    0.40749    1.000
    H179     H        0.52020    0.04680    0.38660    1.000
    C270     C        0.82611    0.95940    0.97437    1.000
    H180     H        0.86780    0.98360    0.99480    1.000
    C271     C        0.74281    0.76390    0.15192    1.000
    C272     C        0.82660    0.79750    0.24469    1.000
    H181     H        0.86530    0.82660    0.26720    1.000
    C273     C        0.80760    0.82130    0.47963    1.000
    H182     H        0.84900    0.79660    0.50060    1.000
    C274     C        0.79848    0.91560    0.00512    1.000
    H183     H        0.82090    0.91140    0.04500    1.000
    C275     C        0.47348    0.64550    0.88442    1.000
    H184     H        0.45640    0.63750    0.84480    1.000
    C276     C        0.67909    0.99790    0.58844    1.000
    C277     C        0.70600    0.82730    0.00572    1.000
    C278     C        0.44273    0.11900    0.37967    1.000
    H185     H        0.42300    0.12020    0.33960    1.000
    C279     C        0.77680    0.98230    0.68374    1.000
    H186     H        0.80100    0.95880    0.66550    1.000
    C280     C        0.68585    0.89200    0.41853    1.000
    H187     H        0.64400    0.91490    0.39640    1.000
    C281     C        0.68198    0.94960    0.50718    1.000
    C282     C        0.71020    0.05180    0.74074    1.000
    H188     H        0.68730    0.07550    0.76000    1.000
    C283     C        0.73636    0.87800    0.97502    1.000
    C284     C        0.71073    0.00720    0.65211    1.000
    C285     C        0.70471    0.88830    0.91534    1.000
    H189     H        0.66290    0.86490    0.89380    1.000
    C286     C        0.71510    0.71220    0.17851    1.000
    H190     H        0.67730    0.68120    0.15670    1.000
    C287     C        0.74440    0.70710    0.23784    1.000
    H191     H        0.72550    0.67200    0.25530    1.000
    C288     C        0.80120    0.80550    0.18564    1.000
    H192     H        0.82270    0.83790    0.16890    1.000
    N85      N        0.41234    0.15990    0.40746    1.000
    N86      N        0.77410    0.02740    0.77180    1.000
    N87      N        0.77963    0.81477    0.42160    1.000
    N88      N        0.62583    0.99060    0.47338    1.000
    N89      N        0.62131    0.03800    0.55897    1.000
    N90      N        0.71046    0.95120    0.56488    1.000
    N91      N        0.79632    0.96890    0.91691    1.000
    N92      N        0.43886    0.61490    0.91184    1.000
    N93      N        0.79904    0.75060    0.27171    1.000
    N94      N        0.64806    0.78950    0.97292    1.000
    N95      N        0.65314    0.73170    0.05984    1.000
    N96      N        0.73848    0.82270    0.06333    1.000
