# CIF file generated by openbabel 3.1.0, see https://openbabel.org
data_I
_chemical_name_common 'cannot_converge_ja512762r_si_002'
_cell_length_a 24.348
_cell_length_b 24.348
_cell_length_c 14.918
_cell_angle_alpha 90
_cell_angle_beta 90
_cell_angle_gamma 90
_space_group_name_H-M_alt 'P 1'
_space_group_name_Hall 'P 1'
loop_
    _symmetry_equiv_pos_as_xyz
    x,y,z
loop_
    _atom_site_label
    _atom_site_type_symbol
    _atom_site_fract_x
    _atom_site_fract_y
    _atom_site_fract_z
    _atom_site_occupancy
    O1       O        0.07714    0.09999    0.16382    1.000
    O2       O        0.13882    0.05018    0.08021    1.000
    X3       C        0.12729    0.08849    0.13887    1.000
    O4       O        0.92318    0.89490    0.15608    1.000
    O5       O        0.86062    0.94759    0.07960    1.000
    X6       C        0.87281    0.90703    0.13372    1.000
    O7       O        0.07668    0.89976    0.16456    1.000
    O8       O        0.13873    0.94913    0.08127    1.000
    X9       C        0.12690    0.91100    0.14015    1.000
    O10      O        0.92248    0.10469    0.15551    1.000
    O11      O        0.86036    0.05169    0.07852    1.000
    X12      C        0.87223    0.09241    0.13247    1.000
    Zr13     Zr       0.99943    0.06919    0.11770    1.000
    O14      O        0.99422    0.06659    0.25933    1.000
    O15      O        0.00161    0.15603    0.11439    1.000
    Zr16     Zr       0.99952    0.93226    0.12061    1.000
    O17      O        0.99424    0.94417    0.26099    1.000
    O18      O        0.00216    0.84650    0.14165    1.000
    O19      O        0.05016    0.00074    0.13626    1.000
    O20      O        0.94997    0.00069    0.13499    1.000
    O21      O        0.92253    0.10341    0.85278    1.000
    O22      O        0.86036    0.05136    0.93150    1.000
    X23      C        0.87227    0.09144    0.87627    1.000
    O24      O        0.07601    0.89824    0.84723    1.000
    O25      O        0.13823    0.94980    0.92646    1.000
    X26      C        0.12630    0.91051    0.86970    1.000
    O27      O        0.92270    0.89509    0.85449    1.000
    O28      O        0.86029    0.94722    0.93229    1.000
    X29      C        0.87242    0.90698    0.87747    1.000
    O30      O        0.07653    0.09948    0.84531    1.000
    O31      O        0.13861    0.04998    0.92856    1.000
    X32      C        0.12680    0.08821    0.86981    1.000
    Zr33     Zr       0.99930    0.06759    0.89045    1.000
    O34      O        0.99408    0.05967    0.74934    1.000
    O35      O        0.00213    0.15413    0.88055    1.000
    Zr36     Zr       0.99931    0.93078    0.89223    1.000
    O37      O        0.99398    0.93831    0.75104    1.000
    O38      O        0.00314    0.84424    0.88186    1.000
    Zr39     Zr       0.08334    0.99958    0.00509    1.000
    Zr40     Zr       0.91556    0.99954    0.00543    1.000
    O41      O        0.94978    0.99908    0.87573    1.000
    O42      O        0.04997    0.99908    0.87407    1.000
    O43      O        0.95055    0.07883    0.00404    1.000
    O44      O        0.04660    0.92108    0.00638    1.000
    O45      O        0.04690    0.07822    0.00397    1.000
    O46      O        0.95100    0.92034    0.00665    1.000
    H47      H        0.92387    0.00098    0.18598    1.000
    H48      H        0.06941    0.88744    0.00629    1.000
    H49      H        0.92370    0.99893    0.82473    1.000
    H50      H        0.06975    0.11184    0.00384    1.000
    H51      H        0.00275    0.82940    0.08161    1.000
    H52      H        0.98341    0.82919    0.93432    1.000
    H53      H        0.03075    0.94886    0.72860    1.000
    H54      H        0.03074    0.04844    0.72727    1.000
    H55      H        0.99152    0.16851    0.94014    1.000
    H56      H        0.00155    0.16859    0.17764    1.000
    H57      H        0.02864    0.04991    0.28178    1.000
    H58      H        0.03201    0.94975    0.28380    1.000
    O59      O        0.39851    0.42183    0.34671    1.000
    O60      O        0.44771    0.35975    0.43050    1.000
    X61      C        0.40973    0.37159    0.37135    1.000
    O62      O        0.60341    0.57474    0.35395    1.000
    O63      O        0.55148    0.63769    0.43096    1.000
    X64      C        0.59163    0.62519    0.37611    1.000
    O65      O        0.59849    0.42149    0.34640    1.000
    O66      O        0.54902    0.35955    0.42974    1.000
    X67      C        0.58718    0.37130    0.37087    1.000
    O68      O        0.39398    0.57627    0.35557    1.000
    O69      O        0.44715    0.63829    0.43247    1.000
    X70      C        0.40636    0.62648    0.37858    1.000
    Zr71     Zr       0.42930    0.49927    0.39338    1.000
    O72      O        0.43170    0.50466    0.25175    1.000
    O73      O        0.34246    0.49723    0.39704    1.000
    Zr74     Zr       0.56617    0.49867    0.39040    1.000
    O75      O        0.55433    0.50380    0.24997    1.000
    O76      O        0.65198    0.49591    0.36990    1.000
    O77      O        0.49755    0.44828    0.37476    1.000
    O78      O        0.49792    0.54849    0.37603    1.000
    O79      O        0.39525    0.57616    0.65809    1.000
    O80      O        0.44742    0.63826    0.57939    1.000
    X81      C        0.40729    0.62640    0.63459    1.000
    O82      O        0.60007    0.42224    0.66374    1.000
    O83      O        0.54840    0.36010    0.58450    1.000
    X84      C        0.58774    0.37198    0.64123    1.000
    O85      O        0.60307    0.57552    0.65768    1.000
    O86      O        0.55153    0.63806    0.57903    1.000
    X87      C        0.59134    0.62583    0.63465    1.000
    O88      O        0.39910    0.42220    0.66625    1.000
    O89      O        0.44823    0.35995    0.58271    1.000
    X90      C        0.41030    0.37188    0.64191    1.000
    Zr91     Zr       0.43092    0.49933    0.62052    1.000
    O92      O        0.43874    0.50473    0.76164    1.000
    O93      O        0.34436    0.49656    0.63021    1.000
    Zr94     Zr       0.56771    0.49899    0.61871    1.000
    O95      O        0.56047    0.50410    0.75996    1.000
    O96      O        0.65431    0.49503    0.62805    1.000
    Zr97     Zr       0.49863    0.41506    0.50589    1.000
    Zr98     Zr       0.49922    0.58296    0.50552    1.000
    O99      O        0.49953    0.54867    0.63519    1.000
    O100     O        0.49929    0.44849    0.63687    1.000
    O101     O        0.41983    0.54816    0.50700    1.000
    O102     O        0.57722    0.45161    0.50461    1.000
    O103     O        0.42011    0.45172    0.50705    1.000
    O104     O        0.57831    0.54729    0.50428    1.000
    H105     H        0.49767    0.57453    0.32497    1.000
    H106     H        0.61081    0.42873    0.50467    1.000
    H107     H        0.49967    0.57468    0.68628    1.000
    H108     H        0.38649    0.42885    0.50724    1.000
    H109     H        0.66894    0.49518    0.43003    1.000
    H110     H        0.66921    0.51612    0.57688    1.000
    H111     H        0.54943    0.46745    0.78227    1.000
    H112     H        0.45022    0.46818    0.78383    1.000
    H113     H        0.33003    0.50759    0.57081    1.000
    H114     H        0.32981    0.49736    0.33384    1.000
    H115     H        0.44867    0.47042    0.22913    1.000
    H116     H        0.54852    0.46604    0.22728    1.000
    C117     C        0.25728    0.19991    0.23668    1.000
    C118     C        0.26743    0.16295    0.16453    1.000
    C119     C        0.22597    0.12560    0.13586    1.000
    X120     C        0.17345    0.12414    0.17604    1.000
    C121     C        0.16422    0.16063    0.24804    1.000
    C122     C        0.20527    0.19738    0.27790    1.000
    C123     C        0.29841    0.24338    0.26692    1.000
    C124     C        0.33349    0.23320    0.34044    1.000
    C125     C        0.37082    0.27342    0.37218    1.000
    X126     C        0.37413    0.32590    0.33242    1.000
    C127     C        0.33951    0.33586    0.25812    1.000
    C128     C        0.30240    0.29566    0.22490    1.000
    H129     H        0.23449    0.09856    0.07992    1.000
    H130     H        0.12461    0.16144    0.28101    1.000
    H131     H        0.39618    0.26378    0.42963    1.000
    H132     H        0.34086    0.37564    0.22561    1.000
    H133     H        0.19585    0.22507    0.33259    1.000
    H134     H        0.33166    0.19386    0.37418    1.000
    C135     C        0.32123    0.16263    0.11481    1.000
    C136     C        0.26760    0.31084    0.14512    1.000
    H137     H        0.31393    0.17308    0.04333    1.000
    H138     H        0.33981    0.12105    0.11867    1.000
    H139     H        0.35127    0.19240    0.14232    1.000
    H140     H        0.29466    0.32125    0.08767    1.000
    H141     H        0.24204    0.34720    0.16179    1.000
    H142     H        0.23976    0.27735    0.12355    1.000
    C143     C        0.74366    0.79562    0.23518    1.000
    C144     C        0.73090    0.83724    0.17131    1.000
    C145     C        0.77239    0.87409    0.14067    1.000
    X146     C        0.82726    0.87055    0.17090    1.000
    C147     C        0.83905    0.82938    0.23474    1.000
    C148     C        0.79825    0.79297    0.26615    1.000
    C149     C        0.70257    0.75247    0.26684    1.000
    C150     C        0.66312    0.76529    0.33317    1.000
    C151     C        0.62643    0.72511    0.36726    1.000
    X152     C        0.62800    0.67023    0.33692    1.000
    C153     C        0.66699    0.65768    0.26972    1.000
    C154     C        0.70352    0.69761    0.23433    1.000
    H155     H        0.76178    0.90493    0.09129    1.000
    H156     H        0.88042    0.82467    0.26020    1.000
    H157     H        0.59742    0.73692    0.41873    1.000
    H158     H        0.66932    0.61612    0.24402    1.000
    H159     H        0.80970    0.76165    0.31420    1.000
    H160     H        0.66115    0.80664    0.35966    1.000
    C161     C        0.67431    0.84294    0.13180    1.000
    C162     C        0.74247    0.67956    0.16151    1.000
    H163     H        0.67661    0.83802    0.05788    1.000
    H164     H        0.65781    0.88437    0.14735    1.000
    H165     H        0.64502    0.81199    0.15791    1.000
    H166     H        0.71871    0.66178    0.10497    1.000
    H167     H        0.77067    0.64770    0.18829    1.000
    H168     H        0.76755    0.71365    0.13421    1.000
    C169     C        0.74258    0.20119    0.77168    1.000
    C170     C        0.79611    0.20021    0.73338    1.000
    C171     C        0.83693    0.16420    0.76750    1.000
    X172     C        0.82644    0.12732    0.83854    1.000
    C173     C        0.77283    0.12746    0.87455    1.000
    C174     C        0.73194    0.16392    0.84222    1.000
    C175     C        0.69908    0.24265    0.74230    1.000
    C176     C        0.70762    0.29874    0.76062    1.000
    C177     C        0.67095    0.33953    0.73036    1.000
    X178     C        0.62374    0.32642    0.67968    1.000
    C179     C        0.61409    0.27015    0.66273    1.000
    C180     C        0.65071    0.22844    0.69356    1.000
    H181     H        0.87747    0.16506    0.73754    1.000
    H182     H        0.76269    0.10018    0.92937    1.000
    H183     H        0.68058    0.38196    0.74530    1.000
    H184     H        0.57828    0.25844    0.62407    1.000
    H185     H        0.69179    0.16353    0.87346    1.000
    H186     H        0.74379    0.31128    0.79763    1.000
    C187     C        0.81171    0.23630    0.65533    1.000
    C188     C        0.63690    0.16975    0.67129    1.000
    H189     H        0.82852    0.21052    0.60038    1.000
    H190     H        0.84367    0.26602    0.67683    1.000
    H191     H        0.77649    0.25949    0.62741    1.000
    H192     H        0.63051    0.16551    0.59802    1.000
    H193     H        0.59839    0.15795    0.70616    1.000
    H194     H        0.66961    0.14055    0.69109    1.000
    C195     C        0.25573    0.79938    0.76833    1.000
    C196     C        0.26988    0.84766    0.81736    1.000
    C197     C        0.22812    0.88420    0.84826    1.000
    X198     C        0.17186    0.87456    0.83116    1.000
    C199     C        0.15882    0.82744    0.78021    1.000
    C200     C        0.19965    0.79084    0.74984    1.000
    C201     C        0.29725    0.75593    0.73895    1.000
    C202     C        0.33464    0.76667    0.66858    1.000
    C203     C        0.37120    0.72585    0.63635    1.000
    X204     C        0.37136    0.67222    0.67227    1.000
    C205     C        0.33439    0.66165    0.74316    1.000
    C206     C        0.29826    0.70239    0.77719    1.000
    H207     H        0.23979    0.91993    0.88713    1.000
    H208     H        0.11640    0.81782    0.76514    1.000
    H209     H        0.39857    0.73606    0.58168    1.000
    H210     H        0.33353    0.62110    0.77307    1.000
    H211     H        0.18717    0.75473    0.71264    1.000
    H212     H        0.33502    0.80684    0.63742    1.000
    C213     C        0.32853    0.86144    0.83991    1.000
    C214     C        0.26208    0.68670    0.85506    1.000
    H215     H        0.33270    0.86749    0.91326    1.000
    H216     H        0.34032    0.90012    0.80553    1.000
    H217     H        0.35779    0.82886    0.81978    1.000
    H218     H        0.28780    0.66990    0.91010    1.000
    H219     H        0.23244    0.65468    0.83340    1.000
    H220     H        0.23878    0.72186    0.88293    1.000
    C221     C        0.25546    0.20070    0.76997    1.000
    C222     C        0.20074    0.20308    0.73683    1.000
    C223     C        0.16046    0.16549    0.76799    1.000
    X224     C        0.17246    0.12429    0.83180    1.000
    C225     C        0.22726    0.12125    0.86237    1.000
    C226     C        0.26785    0.15870    0.83208    1.000
    C227     C        0.29858    0.24342    0.74460    1.000
    C228     C        0.33911    0.23128    0.67983    1.000
    C229     C        0.37642    0.27175    0.64877    1.000
    X230     C        0.37460    0.32625    0.68095    1.000
    C231     C        0.33502    0.33796    0.74760    1.000
    C232     C        0.29771    0.29770    0.77982    1.000
    H233     H        0.11894    0.16921    0.74255    1.000
    H234     H        0.23867    0.09058    0.91145    1.000
    H235     H        0.40590    0.26057    0.59765    1.000
    H236     H        0.33241    0.37920    0.77453    1.000
    H237     H        0.30902    0.15565    0.85907    1.000
    H238     H        0.34101    0.19044    0.65128    1.000
    C239     C        0.18303    0.24530    0.66885    1.000
    C240     C        0.25739    0.31492    0.85113    1.000
    H241     H        0.15135    0.27244    0.69891    1.000
    H242     H        0.16516    0.22428    0.60958    1.000
    H243     H        0.21733    0.27134    0.64482    1.000
    H244     H        0.22974    0.34712    0.82390    1.000
    H245     H        0.28005    0.33198    0.90942    1.000
    H246     H        0.23179    0.28050    0.87592    1.000
    C247     C        0.74462    0.79564    0.77175    1.000
    C248     C        0.79965    0.79348    0.74020    1.000
    C249     C        0.83967    0.83036    0.77409    1.000
    X250     C        0.82712    0.87067    0.83912    1.000
    C251     C        0.77208    0.87343    0.86849    1.000
    C252     C        0.73171    0.83657    0.83553    1.000
    C253     C        0.70185    0.75335    0.74343    1.000
    C254     C        0.66268    0.76599    0.67666    1.000
    C255     C        0.62596    0.72576    0.64289    1.000
    X256     C        0.62721    0.67109    0.67420    1.000
    C257     C        0.66557    0.65887    0.74248    1.000
    C258     C        0.70217    0.69882    0.77744    1.000
    H259     H        0.88137    0.82698    0.74936    1.000
    H260     H        0.76031    0.90343    0.91846    1.000
    H261     H        0.59739    0.73728    0.59059    1.000
    H262     H        0.66759    0.61748    0.76898    1.000
    H263     H        0.69029    0.83926    0.86158    1.000
    H264     H        0.66138    0.80704    0.64881    1.000
    C265     C        0.81798    0.75225    0.67103    1.000
    C266     C        0.74114    0.68101    0.85037    1.000
    H267     H        0.84923    0.72453    0.70091    1.000
    H268     H        0.83660    0.77412    0.61320    1.000
    H269     H        0.78390    0.72671    0.64488    1.000
    H270     H        0.76914    0.64887    0.82396    1.000
    H271     H        0.71739    0.66370    0.90731    1.000
    H272     H        0.76646    0.71515    0.87693    1.000
    C273     C        0.25536    0.79993    0.24476    1.000
    C274     C        0.26802    0.83969    0.17769    1.000
    C275     C        0.22686    0.87660    0.14610    1.000
    X276     C        0.17245    0.87515    0.17891    1.000
    C277     C        0.16074    0.83572    0.24568    1.000
    C278     C        0.20115    0.79904    0.27758    1.000
    C279     C        0.29639    0.75738    0.27888    1.000
    C280     C        0.28997    0.70208    0.25330    1.000
    C281     C        0.32584    0.66064    0.28409    1.000
    X282     C        0.37004    0.67241    0.34231    1.000
    C283     C        0.37690    0.72782    0.36799    1.000
    C284     C        0.34072    0.77000    0.33785    1.000
    H285     H        0.23727    0.90571    0.09384    1.000
    H286     H        0.11966    0.83248    0.27294    1.000
    H287     H        0.31841    0.61885    0.26249    1.000
    H288     H        0.41013    0.73846    0.41303    1.000
    H289     H        0.18976    0.76921    0.32813    1.000
    H290     H        0.25659    0.69073    0.20901    1.000
    C291     C        0.32411    0.84315    0.13572    1.000
    C292     C        0.35044    0.82735    0.37200    1.000
    H293     H        0.34134    0.88486    0.14637    1.000
    H294     H        0.32061    0.83531    0.06273    1.000
    H295     H        0.35343    0.81287    0.16363    1.000
    H296     H        0.39146    0.84177    0.34961    1.000
    H297     H        0.34928    0.82729    0.44643    1.000
    H298     H        0.31924    0.85706    0.34805    1.000
    C299     C        0.74121    0.20215    0.23241    1.000
    C300     C        0.72860    0.15758    0.17392    1.000
    C301     C        0.77084    0.12154    0.14363    1.000
    X302     C        0.82631    0.12872    0.16878    1.000
    C303     C        0.83808    0.17314    0.22655    1.000
    C304     C        0.79657    0.20891    0.25743    1.000
    C305     C        0.69856    0.24305    0.26655    1.000
    C306     C        0.69863    0.29697    0.23250    1.000
    C307     C        0.66182    0.33728    0.26431    1.000
    X308     C        0.62304    0.32574    0.33218    1.000
    C309     C        0.62240    0.27161    0.36622    1.000
    C310     C        0.65947    0.23056    0.33474    1.000
    H311     H        0.76020    0.08813    0.09894    1.000
    H312     H        0.87991    0.18081    0.24773    1.000
    H313     H        0.66443    0.37816    0.23610    1.000
    H314     H        0.59384    0.26135    0.41937    1.000
    H315     H        0.80790    0.24248    0.30135    1.000
    H316     H        0.72793    0.30823    0.18105    1.000
    C317     C        0.67115    0.14742    0.14054    1.000
    C318     C        0.65696    0.17480    0.37805    1.000
    H319     H        0.65711    0.10634    0.16328    1.000
    H320     H        0.67085    0.14847    0.06611    1.000
    H321     H        0.64134    0.17845    0.16476    1.000
    H322     H        0.61525    0.15718    0.36923    1.000
    H323     H        0.66574    0.17898    0.45066    1.000
    H324     H        0.68708    0.14546    0.34970    1.000
