# CIF file generated by openbabel 3.1.0, see https://openbabel.org
data_I
_chemical_name_common 'image0'
_cell_length_a 8.8979
_cell_length_b 21.4587
_cell_length_c 13.4851
_cell_angle_alpha 90
_cell_angle_beta 96.7804
_cell_angle_gamma 90
_space_group_name_H-M_alt 'P 1'
_space_group_name_Hall 'P 1'
loop_
    _symmetry_equiv_pos_as_xyz
    x,y,z
loop_
    _atom_site_label
    _atom_site_type_symbol
    _atom_site_fract_x
    _atom_site_fract_y
    _atom_site_fract_z
    _atom_site_occupancy
    O1       O        0.60280    0.70593    0.84632    1.000
    O2       O        0.70710    0.62298    0.92190    1.000
    N1       N        0.35330    0.59490    0.81818    1.000
    C1       C        0.68710    0.67905    0.91680    1.000
    C2       C        0.76100    0.72009    0.99670    1.000
    H1       H        0.82840    0.70160    0.04600    1.000
    C3       C        0.39770    0.54151    0.86520    1.000
    H2       H        0.49520    0.52700    0.86100    1.000
    C4       C        0.30410    0.50750    0.91930    1.000
    H3       H        0.33830    0.47060    0.95030    1.000
    C5       C        0.15980    0.52854    0.92740    1.000
    C6       C        0.11430    0.58322    0.87810    1.000
    H4       H        0.01780    0.59900    0.88190    1.000
    C7       C        0.21280    0.61410    0.82330    1.000
    H5       H        0.17920    0.64990    0.78860    1.000
    C8       C        0.06720    0.49230    0.99080    1.000
    H6       H        0.10840    0.45580    0.01940    1.000
    O3       O        0.10280    0.20593    0.84632    1.000
    O4       O        0.20710    0.12298    0.92190    1.000
    N2       N        0.85330    0.09490    0.81818    1.000
    C9       C        0.18710    0.17905    0.91680    1.000
    C10      C        0.26100    0.22009    0.99670    1.000
    H7       H        0.32840    0.20160    0.04600    1.000
    C11      C        0.89770    0.04151    0.86520    1.000
    H8       H        0.99520    0.02700    0.86100    1.000
    C12      C        0.80410    0.00750    0.91930    1.000
    H9       H        0.83830    0.97060    0.95030    1.000
    C13      C        0.65980    0.02854    0.92740    1.000
    C14      C        0.61430    0.08322    0.87810    1.000
    H10      H        0.51780    0.09900    0.88190    1.000
    C15      C        0.71280    0.11410    0.82330    1.000
    H11      H        0.67920    0.14990    0.78860    1.000
    C16      C        0.56720    0.99230    0.99080    1.000
    H12      H        0.60840    0.95580    0.01940    1.000
    O5       O        0.39720    0.70593    0.65368    1.000
    O6       O        0.29290    0.62298    0.57810    1.000
    N3       N        0.64670    0.59490    0.68182    1.000
    C17      C        0.31290    0.67905    0.58320    1.000
    C18      C        0.23900    0.72009    0.50330    1.000
    H13      H        0.17160    0.70160    0.45400    1.000
    C19      C        0.60230    0.54151    0.63480    1.000
    H14      H        0.50480    0.52700    0.63900    1.000
    C20      C        0.69590    0.50750    0.58070    1.000
    H15      H        0.66170    0.47060    0.54970    1.000
    C21      C        0.84020    0.52854    0.57260    1.000
    C22      C        0.88570    0.58322    0.62190    1.000
    H16      H        0.98220    0.59900    0.61810    1.000
    C23      C        0.78720    0.61410    0.67670    1.000
    H17      H        0.82080    0.64990    0.71140    1.000
    C24      C        0.93280    0.49230    0.50920    1.000
    H18      H        0.89160    0.45580    0.48060    1.000
    O7       O        0.89720    0.20593    0.65368    1.000
    O8       O        0.79290    0.12298    0.57810    1.000
    N4       N        0.14670    0.09490    0.68182    1.000
    C25      C        0.81290    0.17905    0.58320    1.000
    C26      C        0.73900    0.22009    0.50330    1.000
    H19      H        0.67160    0.20160    0.45400    1.000
    C27      C        0.10230    0.04151    0.63480    1.000
    H20      H        0.00480    0.02700    0.63900    1.000
    C28      C        0.19590    0.00750    0.58070    1.000
    H21      H        0.16170    0.97060    0.54970    1.000
    C29      C        0.34020    0.02854    0.57260    1.000
    C30      C        0.38570    0.08322    0.62190    1.000
    H22      H        0.48220    0.09900    0.61810    1.000
    C31      C        0.28720    0.11410    0.67670    1.000
    H23      H        0.32080    0.14990    0.71140    1.000
    C32      C        0.43280    0.99230    0.50920    1.000
    H24      H        0.39160    0.95580    0.48060    1.000
    O9       O        0.39720    0.29407    0.15368    1.000
    O10      O        0.29290    0.37702    0.07810    1.000
    N5       N        0.64670    0.40510    0.18182    1.000
    C33      C        0.31290    0.32095    0.08320    1.000
    C34      C        0.23900    0.27991    0.00330    1.000
    H25      H        0.17160    0.29840    0.95400    1.000
    C35      C        0.60230    0.45849    0.13480    1.000
    H26      H        0.50480    0.47300    0.13900    1.000
    C36      C        0.69590    0.49250    0.08070    1.000
    H27      H        0.66170    0.52940    0.04970    1.000
    C37      C        0.84020    0.47146    0.07260    1.000
    C38      C        0.88570    0.41678    0.12190    1.000
    H28      H        0.98220    0.40100    0.11810    1.000
    C39      C        0.78720    0.38590    0.17670    1.000
    H29      H        0.82080    0.35010    0.21140    1.000
    C40      C        0.93280    0.50770    0.00920    1.000
    H30      H        0.89160    0.54420    0.98060    1.000
    O11      O        0.89720    0.79407    0.15368    1.000
    O12      O        0.79290    0.87702    0.07810    1.000
    N6       N        0.14670    0.90510    0.18182    1.000
    C41      C        0.81290    0.82095    0.08320    1.000
    C42      C        0.73900    0.77991    0.00330    1.000
    H31      H        0.67160    0.79840    0.95400    1.000
    C43      C        0.10230    0.95849    0.13480    1.000
    H32      H        0.00480    0.97300    0.13900    1.000
    C44      C        0.19590    0.99250    0.08070    1.000
    H33      H        0.16170    0.02940    0.04970    1.000
    C45      C        0.34020    0.97146    0.07260    1.000
    C46      C        0.38570    0.91678    0.12190    1.000
    H34      H        0.48220    0.90100    0.11810    1.000
    C47      C        0.28720    0.88590    0.17670    1.000
    H35      H        0.32080    0.85010    0.21140    1.000
    C48      C        0.43280    0.00770    0.00920    1.000
    H36      H        0.39160    0.04420    0.98060    1.000
    O13      O        0.60280    0.29407    0.34632    1.000
    O14      O        0.70710    0.37702    0.42190    1.000
    N7       N        0.35330    0.40510    0.31818    1.000
    C49      C        0.68710    0.32095    0.41680    1.000
    C50      C        0.76100    0.27991    0.49670    1.000
    H37      H        0.82840    0.29840    0.54600    1.000
    C51      C        0.39770    0.45849    0.36520    1.000
    H38      H        0.49520    0.47300    0.36100    1.000
    C52      C        0.30410    0.49250    0.41930    1.000
    H39      H        0.33830    0.52940    0.45030    1.000
    C53      C        0.15980    0.47146    0.42740    1.000
    C54      C        0.11430    0.41678    0.37810    1.000
    H40      H        0.01780    0.40100    0.38190    1.000
    C55      C        0.21280    0.38590    0.32330    1.000
    H41      H        0.17920    0.35010    0.28860    1.000
    C56      C        0.06720    0.50770    0.49080    1.000
    H42      H        0.10840    0.54420    0.51940    1.000
    O15      O        0.10280    0.79407    0.34632    1.000
    O16      O        0.20710    0.87702    0.42190    1.000
    N8       N        0.85330    0.90510    0.31818    1.000
    C57      C        0.18710    0.82095    0.41680    1.000
    C58      C        0.26100    0.77991    0.49670    1.000
    H43      H        0.32840    0.79840    0.54600    1.000
    C59      C        0.89770    0.95849    0.36520    1.000
    H44      H        0.99520    0.97300    0.36100    1.000
    C60      C        0.80410    0.99250    0.41930    1.000
    H45      H        0.83830    0.02940    0.45030    1.000
    C61      C        0.65980    0.97146    0.42740    1.000
    C62      C        0.61430    0.91678    0.37810    1.000
    H46      H        0.51780    0.90100    0.38190    1.000
    C63      C        0.71280    0.88590    0.32330    1.000
    H47      H        0.67920    0.85010    0.28860    1.000
    C64      C        0.56720    0.00770    0.49080    1.000
    H48      H        0.60840    0.04420    0.51940    1.000
    Zn1      Zn       0.50000    0.64732    0.75000    1.000
    Zn2      Zn       0.00000    0.14732    0.75000    1.000
    Zn3      Zn       0.50000    0.35268    0.25000    1.000
    Zn4      Zn       0.00000    0.85268    0.25000    1.000
