# CIF file generated by openbabel 3.1.0, see https://openbabel.org
data_I
_chemical_name_common 'image0'
_cell_length_a 13.4701
_cell_length_b 10.8298
_cell_length_c 14.6883
_cell_angle_alpha 90
_cell_angle_beta 109.83
_cell_angle_gamma 90
_space_group_name_H-M_alt 'P 1'
_space_group_name_Hall 'P 1'
loop_
    _symmetry_equiv_pos_as_xyz
    x,y,z
loop_
    _atom_site_label
    _atom_site_type_symbol
    _atom_site_fract_x
    _atom_site_fract_y
    _atom_site_fract_z
    _atom_site_occupancy
    Co1      Co       0.40150    0.91712    0.45566    1.000
    Co2      Co       0.50557    0.02088    0.29887    1.000
    O1       O        0.29650    0.03870    0.36800    1.000
    O2       O        0.39160    0.14680    0.29700    1.000
    O3       O        0.38050    0.42430    0.23450    1.000
    O4       O        0.31550    0.29150    0.11150    1.000
    O5       O        0.63290    0.28390    0.15410    1.000
    O6       O        0.62440    0.40510    0.27540    1.000
    O7       O        0.61480    0.16240    0.35020    1.000
    O8       O        0.71450    0.15590    0.50500    1.000
    O9       O        0.54030    0.95390    0.43640    1.000
    C1       C        0.31060    0.12830    0.31980    1.000
    C2       C        0.22230    0.22020    0.28480    1.000
    C3       C        0.13640    0.20640    0.31630    1.000
    H1       H        0.13570    0.13990    0.35620    1.000
    C4       C        0.05180    0.28750    0.29070    1.000
    C5       C        0.05480    0.38690    0.22980    1.000
    H2       H        0.99900    0.44270    0.21080    1.000
    C6       C        0.13890    0.40290    0.19790    1.000
    H3       H        0.13960    0.46950    0.15810    1.000
    C7       C        0.22450    0.31880    0.22490    1.000
    C8       C        0.31540    0.34420    0.18770    1.000
    C9       C        0.96240    0.26870    0.32710    1.000
    C10      C        0.86030    0.30110    0.27100    1.000
    H4       H        0.84840    0.33870    0.21130    1.000
    C11      C        0.77520    0.27860    0.30230    1.000
    C12      C        0.79190    0.21890    0.39060    1.000
    C13      C        0.89480    0.18930    0.44870    1.000
    H5       H        0.90700    0.15280    0.50890    1.000
    C14      C        0.97880    0.21390    0.41730    1.000
    H6       H        0.04700    0.19380    0.45670    1.000
    C15      C        0.66830    0.32340    0.24000    1.000
    C16      C        0.69970    0.17590    0.41780    1.000
    H7       H        0.57000    0.90600    0.43600    1.000
    H8       H        0.55900    0.03500    0.46500    1.000
    Co3      Co       0.59850    0.41712    0.04434    1.000
    Co4      Co       0.49443    0.52088    0.20113    1.000
    O10      O        0.70350    0.53870    0.13200    1.000
    O11      O        0.60840    0.64680    0.20300    1.000
    O12      O        0.61950    0.92430    0.26550    1.000
    O13      O        0.68450    0.79150    0.38850    1.000
    O14      O        0.36710    0.78390    0.34590    1.000
    O15      O        0.37560    0.90510    0.22460    1.000
    O16      O        0.38520    0.66240    0.14980    1.000
    O17      O        0.28550    0.65590    0.99500    1.000
    O18      O        0.45970    0.45390    0.06360    1.000
    C17      C        0.68940    0.62830    0.18020    1.000
    C18      C        0.77770    0.72020    0.21520    1.000
    C19      C        0.86360    0.70640    0.18370    1.000
    H9       H        0.86430    0.63990    0.14380    1.000
    C20      C        0.94820    0.78750    0.20930    1.000
    C21      C        0.94520    0.88690    0.27020    1.000
    H10      H        0.00100    0.94270    0.28920    1.000
    C22      C        0.86110    0.90290    0.30210    1.000
    H11      H        0.86040    0.96950    0.34190    1.000
    C23      C        0.77550    0.81880    0.27510    1.000
    C24      C        0.68460    0.84420    0.31230    1.000
    C25      C        0.03760    0.76870    0.17290    1.000
    C26      C        0.13970    0.80110    0.22900    1.000
    H12      H        0.15160    0.83870    0.28870    1.000
    C27      C        0.22480    0.77860    0.19770    1.000
    C28      C        0.20810    0.71890    0.10940    1.000
    C29      C        0.10520    0.68930    0.05130    1.000
    H13      H        0.09300    0.65280    0.99110    1.000
    C30      C        0.02120    0.71390    0.08270    1.000
    H14      H        0.95300    0.69380    0.04330    1.000
    C31      C        0.33170    0.82340    0.26000    1.000
    C32      C        0.30030    0.67590    0.08220    1.000
    H15      H        0.43000    0.40600    0.06400    1.000
    H16      H        0.44100    0.53500    0.03500    1.000
    Co5      Co       0.59850    0.08288    0.54434    1.000
    Co6      Co       0.49443    0.97912    0.70113    1.000
    O19      O        0.70350    0.96130    0.63200    1.000
    O20      O        0.60840    0.85320    0.70300    1.000
    O21      O        0.61950    0.57570    0.76550    1.000
    O22      O        0.68450    0.70850    0.88850    1.000
    O23      O        0.36710    0.71610    0.84590    1.000
    O24      O        0.37560    0.59490    0.72460    1.000
    O25      O        0.38520    0.83760    0.64980    1.000
    O26      O        0.28550    0.84410    0.49500    1.000
    O27      O        0.45970    0.04610    0.56360    1.000
    C33      C        0.68940    0.87170    0.68020    1.000
    C34      C        0.77770    0.77980    0.71520    1.000
    C35      C        0.86360    0.79360    0.68370    1.000
    H17      H        0.86430    0.86010    0.64380    1.000
    C36      C        0.94820    0.71250    0.70930    1.000
    C37      C        0.94520    0.61310    0.77020    1.000
    H18      H        0.00100    0.55730    0.78920    1.000
    C38      C        0.86110    0.59710    0.80210    1.000
    H19      H        0.86040    0.53050    0.84190    1.000
    C39      C        0.77550    0.68120    0.77510    1.000
    C40      C        0.68460    0.65580    0.81230    1.000
    C41      C        0.03760    0.73130    0.67290    1.000
    C42      C        0.13970    0.69890    0.72900    1.000
    H20      H        0.15160    0.66130    0.78870    1.000
    C43      C        0.22480    0.72140    0.69770    1.000
    C44      C        0.20810    0.78110    0.60940    1.000
    C45      C        0.10520    0.81070    0.55130    1.000
    H21      H        0.09300    0.84720    0.49110    1.000
    C46      C        0.02120    0.78610    0.58270    1.000
    H22      H        0.95300    0.80620    0.54330    1.000
    C47      C        0.33170    0.67660    0.76000    1.000
    C48      C        0.30030    0.82410    0.58220    1.000
    H23      H        0.43000    0.09400    0.56400    1.000
    H24      H        0.44100    0.96500    0.53500    1.000
    Co7      Co       0.40150    0.58288    0.95566    1.000
    Co8      Co       0.50557    0.47912    0.79887    1.000
    O28      O        0.29650    0.46130    0.86800    1.000
    O29      O        0.39160    0.35320    0.79700    1.000
    O30      O        0.38050    0.07570    0.73450    1.000
    O31      O        0.31550    0.20850    0.61150    1.000
    O32      O        0.63290    0.21610    0.65410    1.000
    O33      O        0.62440    0.09490    0.77540    1.000
    O34      O        0.61480    0.33760    0.85020    1.000
    O35      O        0.71450    0.34410    0.00500    1.000
    O36      O        0.54030    0.54610    0.93640    1.000
    C49      C        0.31060    0.37170    0.81980    1.000
    C50      C        0.22230    0.27980    0.78480    1.000
    C51      C        0.13640    0.29360    0.81630    1.000
    H25      H        0.13570    0.36010    0.85620    1.000
    C52      C        0.05180    0.21250    0.79070    1.000
    C53      C        0.05480    0.11310    0.72980    1.000
    H26      H        0.99900    0.05730    0.71080    1.000
    C54      C        0.13890    0.09710    0.69790    1.000
    H27      H        0.13960    0.03050    0.65810    1.000
    C55      C        0.22450    0.18120    0.72490    1.000
    C56      C        0.31540    0.15580    0.68770    1.000
    C57      C        0.96240    0.23130    0.82710    1.000
    C58      C        0.86030    0.19890    0.77100    1.000
    H28      H        0.84840    0.16130    0.71130    1.000
    C59      C        0.77520    0.22140    0.80230    1.000
    C60      C        0.79190    0.28110    0.89060    1.000
    C61      C        0.89480    0.31070    0.94870    1.000
    H29      H        0.90700    0.34720    0.00890    1.000
    C62      C        0.97880    0.28610    0.91730    1.000
    H30      H        0.04700    0.30620    0.95670    1.000
    C63      C        0.66830    0.17660    0.74000    1.000
    C64      C        0.69970    0.32410    0.91780    1.000
    H31      H        0.57000    0.59400    0.93600    1.000
    H32      H        0.55900    0.46500    0.96500    1.000
