# CIF file generated by openbabel 3.1.0, see https://openbabel.org
data_I
_chemical_name_common 'EBELUU_clean'
_cell_length_a 7.362
_cell_length_b 12.946
_cell_length_c 13.628
_cell_angle_alpha 90
_cell_angle_beta 91.312
_cell_angle_gamma 90
_space_group_name_H-M_alt 'P 1'
_space_group_name_Hall 'P 1'
loop_
    _symmetry_equiv_pos_as_xyz
    x,y,z
loop_
    _atom_site_label
    _atom_site_type_symbol
    _atom_site_fract_x
    _atom_site_fract_y
    _atom_site_fract_z
    _atom_site_occupancy
    Zn1      Zn       0.50024    0.25000    0.08624    1.000
    Zn2      Zn       0.49976    0.75000    0.91376    1.000
    Ni1      Ni       0.00000    0.00000    0.00000    1.000
    Ni2      Ni       0.00000    0.50000    0.00000    1.000
    H1       H        0.52110    0.40440    0.90970    1.000
    H2       H        0.56360    0.40350    0.74120    1.000
    H3       H        0.45870    0.40480    0.43370    1.000
    H4       H        0.50470    0.40270    0.26510    1.000
    H5       H        0.47890    0.90440    0.09030    1.000
    H6       H        0.43640    0.90350    0.25880    1.000
    H7       H        0.54130    0.90480    0.56630    1.000
    H8       H        0.49530    0.90270    0.73490    1.000
    H9       H        0.47890    0.59560    0.09030    1.000
    H10      H        0.43640    0.59650    0.25880    1.000
    H11      H        0.54130    0.59520    0.56630    1.000
    H12      H        0.49530    0.59730    0.73490    1.000
    H13      H        0.52110    0.09560    0.90970    1.000
    H14      H        0.56360    0.09650    0.74120    1.000
    H15      H        0.45870    0.09520    0.43370    1.000
    H16      H        0.50470    0.09730    0.26510    1.000
    C1       C        0.82770    0.07820    0.04640    1.000
    C2       C        0.19950    0.09170    0.03780    1.000
    C3       C        0.53060    0.34180    0.87670    1.000
    C4       C        0.55170    0.34140    0.77470    1.000
    C5       C        0.46900    0.34250    0.40020    1.000
    C6       C        0.49480    0.34070    0.29900    1.000
    C7       C        0.17230    0.57820    0.95360    1.000
    C8       C        0.80050    0.59170    0.96220    1.000
    C9       C        0.46940    0.84180    0.12330    1.000
    C10      C        0.44830    0.84140    0.22530    1.000
    C11      C        0.53100    0.84250    0.59980    1.000
    C12      C        0.50520    0.84070    0.70100    1.000
    C13      C        0.17230    0.92180    0.95360    1.000
    C14      C        0.80050    0.90830    0.96220    1.000
    C15      C        0.46940    0.65820    0.12330    1.000
    C16      C        0.44830    0.65860    0.22530    1.000
    C17      C        0.53100    0.65750    0.59980    1.000
    C18      C        0.50520    0.65930    0.70100    1.000
    C19      C        0.82770    0.42180    0.04640    1.000
    C20      C        0.19950    0.40830    0.03780    1.000
    C21      C        0.53060    0.15820    0.87670    1.000
    C22      C        0.55170    0.15860    0.77470    1.000
    C23      C        0.46900    0.15750    0.40020    1.000
    C24      C        0.49480    0.15930    0.29900    1.000
    C25      C        0.55470    0.25000    0.72390    1.000
    C26      C        0.57580    0.25000    0.61500    1.000
    C27      C        0.45930    0.25000    0.44870    1.000
    C28      C        0.44530    0.75000    0.27610    1.000
    C29      C        0.42420    0.75000    0.38500    1.000
    C30      C        0.54070    0.75000    0.55130    1.000
    N1       N        0.30550    0.13980    0.07650    1.000
    N2       N        0.71030    0.13360    0.07770    1.000
    N3       N        0.69450    0.63980    0.92350    1.000
    N4       N        0.28970    0.63360    0.92230    1.000
    N5       N        0.69450    0.86020    0.92350    1.000
    N6       N        0.28970    0.86640    0.92230    1.000
    N7       N        0.30550    0.36020    0.07650    1.000
    N8       N        0.71030    0.36640    0.07770    1.000
    N9       N        0.52380    0.25000    0.92900    1.000
    N10      N        0.43970    0.25000    0.55900    1.000
    N11      N        0.50570    0.25000    0.24890    1.000
    N12      N        0.47620    0.75000    0.07100    1.000
    N13      N        0.56030    0.75000    0.44100    1.000
    N14      N        0.49430    0.75000    0.75110    1.000
    O1       O        0.73120    0.25000    0.57740    1.000
    O2       O        0.26880    0.75000    0.42260    1.000
