# CIF file generated by openbabel 3.1.0, see https://openbabel.org
data_I
_chemical_name_common 'image0'
_cell_length_a 22.139
_cell_length_b 13.661
_cell_length_c 10.481
_cell_angle_alpha 90
_cell_angle_beta 90.06
_cell_angle_gamma 90
_space_group_name_H-M_alt 'P 1'
_space_group_name_Hall 'P 1'
loop_
    _symmetry_equiv_pos_as_xyz
    x,y,z
loop_
    _atom_site_label
    _atom_site_type_symbol
    _atom_site_fract_x
    _atom_site_fract_y
    _atom_site_fract_z
    _atom_site_occupancy
    Zn1      Zn       0.39842    0.04063    0.68857    1.000
    Zn2      Zn       0.25709    0.11128    0.44731    1.000
    P1       P        0.35017    0.23624    0.58136    1.000
    H1       H        0.39100    0.29500    0.54500    1.000
    P2       P        0.26430    0.97957    0.68033    1.000
    H2       H        0.23440    0.89500    0.65100    1.000
    P3       P        0.47238    0.97270    0.93540    1.000
    O1       O        0.42490    0.03340    0.87340    1.000
    O2       O        0.41340    0.97200    0.84420    1.000
    O3       O        0.46576    0.01480    0.58430    1.000
    O4       O        0.32841    0.96490    0.63470    1.000
    O5       O        0.37616    0.17680    0.69020    1.000
    O6       O        0.23099    0.05900    0.60880    1.000
    O7       O        0.33529    0.17560    0.46410    1.000
    O8       O        0.29690    0.29500    0.62880    1.000
    O9       O        0.26017    0.99460    0.82380    1.000
    Zn3      Zn       0.89842    0.54063    0.68857    1.000
    Zn4      Zn       0.75709    0.61128    0.44731    1.000
    P4       P        0.85017    0.73624    0.58136    1.000
    H3       H        0.89100    0.79500    0.54500    1.000
    P5       P        0.76430    0.47957    0.68033    1.000
    H4       H        0.73440    0.39500    0.65100    1.000
    P6       P        0.97238    0.47270    0.93540    1.000
    O10      O        0.92490    0.53340    0.87340    1.000
    O11      O        0.91340    0.47200    0.84420    1.000
    O12      O        0.96576    0.51480    0.58430    1.000
    O13      O        0.82841    0.46490    0.63470    1.000
    O14      O        0.87616    0.67680    0.69020    1.000
    O15      O        0.73099    0.55900    0.60880    1.000
    O16      O        0.83529    0.67560    0.46410    1.000
    O17      O        0.79690    0.79500    0.62880    1.000
    O18      O        0.76017    0.49460    0.82380    1.000
    Zn5      Zn       0.60158    0.04063    0.81143    1.000
    Zn6      Zn       0.74291    0.11128    0.05269    1.000
    P7       P        0.64983    0.23624    0.91864    1.000
    H5       H        0.60900    0.29500    0.95500    1.000
    P8       P        0.73570    0.97957    0.81967    1.000
    H6       H        0.76560    0.89500    0.84900    1.000
    P9       P        0.52762    0.97270    0.56460    1.000
    O19      O        0.57510    0.03340    0.62660    1.000
    O20      O        0.58660    0.97200    0.65580    1.000
    O21      O        0.53424    0.01480    0.91570    1.000
    O22      O        0.67159    0.96490    0.86530    1.000
    O23      O        0.62384    0.17680    0.80980    1.000
    O24      O        0.76901    0.05900    0.89120    1.000
    O25      O        0.66471    0.17560    0.03590    1.000
    O26      O        0.70310    0.29500    0.87120    1.000
    O27      O        0.73983    0.99460    0.67620    1.000
    Zn7      Zn       0.10158    0.54063    0.81143    1.000
    Zn8      Zn       0.24291    0.61128    0.05269    1.000
    P10      P        0.14983    0.73624    0.91864    1.000
    H7       H        0.10900    0.79500    0.95500    1.000
    P11      P        0.23570    0.47957    0.81967    1.000
    H8       H        0.26560    0.39500    0.84900    1.000
    P12      P        0.02762    0.47270    0.56460    1.000
    O28      O        0.07510    0.53340    0.62660    1.000
    O29      O        0.08660    0.47200    0.65580    1.000
    O30      O        0.03424    0.51480    0.91570    1.000
    O31      O        0.17159    0.46490    0.86530    1.000
    O32      O        0.12384    0.67680    0.80980    1.000
    O33      O        0.26901    0.55900    0.89120    1.000
    O34      O        0.16471    0.67560    0.03590    1.000
    O35      O        0.20310    0.79500    0.87120    1.000
    O36      O        0.23983    0.49460    0.67620    1.000
    Zn9      Zn       0.60158    0.95937    0.31143    1.000
    Zn10     Zn       0.74291    0.88872    0.55269    1.000
    P13      P        0.64983    0.76376    0.41864    1.000
    H9       H        0.60900    0.70500    0.45500    1.000
    P14      P        0.73570    0.02043    0.31967    1.000
    H10      H        0.76560    0.10500    0.34900    1.000
    P15      P        0.52762    0.02730    0.06460    1.000
    O37      O        0.57510    0.96660    0.12660    1.000
    O38      O        0.58660    0.02800    0.15580    1.000
    O39      O        0.53424    0.98520    0.41570    1.000
    O40      O        0.67159    0.03510    0.36530    1.000
    O41      O        0.62384    0.82320    0.30980    1.000
    O42      O        0.76901    0.94100    0.39120    1.000
    O43      O        0.66471    0.82440    0.53590    1.000
    O44      O        0.70310    0.70500    0.37120    1.000
    O45      O        0.73983    0.00540    0.17620    1.000
    Zn11     Zn       0.10158    0.45937    0.31143    1.000
    Zn12     Zn       0.24291    0.38872    0.55269    1.000
    P16      P        0.14983    0.26376    0.41864    1.000
    H11      H        0.10900    0.20500    0.45500    1.000
    P17      P        0.23570    0.52043    0.31967    1.000
    H12      H        0.26560    0.60500    0.34900    1.000
    P18      P        0.02762    0.52730    0.06460    1.000
    O46      O        0.07510    0.46660    0.12660    1.000
    O47      O        0.08660    0.52800    0.15580    1.000
    O48      O        0.03424    0.48520    0.41570    1.000
    O49      O        0.17159    0.53510    0.36530    1.000
    O50      O        0.12384    0.32320    0.30980    1.000
    O51      O        0.26901    0.44100    0.39120    1.000
    O52      O        0.16471    0.32440    0.53590    1.000
    O53      O        0.20310    0.20500    0.37120    1.000
    O54      O        0.23983    0.50540    0.17620    1.000
    Zn13     Zn       0.39842    0.95937    0.18857    1.000
    Zn14     Zn       0.25709    0.88872    0.94731    1.000
    P19      P        0.35017    0.76376    0.08136    1.000
    H13      H        0.39100    0.70500    0.04500    1.000
    P20      P        0.26430    0.02043    0.18033    1.000
    H14      H        0.23440    0.10500    0.15100    1.000
    P21      P        0.47238    0.02730    0.43540    1.000
    O55      O        0.42490    0.96660    0.37340    1.000
    O56      O        0.41340    0.02800    0.34420    1.000
    O57      O        0.46576    0.98520    0.08430    1.000
    O58      O        0.32841    0.03510    0.13470    1.000
    O59      O        0.37616    0.82320    0.19020    1.000
    O60      O        0.23099    0.94100    0.10880    1.000
    O61      O        0.33529    0.82440    0.96410    1.000
    O62      O        0.29690    0.70500    0.12880    1.000
    O63      O        0.26017    0.00540    0.32380    1.000
    Zn15     Zn       0.89842    0.45937    0.18857    1.000
    Zn16     Zn       0.75709    0.38872    0.94731    1.000
    P22      P        0.85017    0.26376    0.08136    1.000
    H15      H        0.89100    0.20500    0.04500    1.000
    P23      P        0.76430    0.52043    0.18033    1.000
    H16      H        0.73440    0.60500    0.15100    1.000
    P24      P        0.97238    0.52730    0.43540    1.000
    O64      O        0.92490    0.46660    0.37340    1.000
    O65      O        0.91340    0.52800    0.34420    1.000
    O66      O        0.96576    0.48520    0.08430    1.000
    O67      O        0.82841    0.53510    0.13470    1.000
    O68      O        0.87616    0.32320    0.19020    1.000
    O69      O        0.73099    0.44100    0.10880    1.000
    O70      O        0.83529    0.32440    0.96410    1.000
    O71      O        0.79690    0.20500    0.12880    1.000
    O72      O        0.76017    0.50540    0.32380    1.000
