# CIF file generated by openbabel 3.1.0, see https://openbabel.org
data_I
_chemical_name_common 'REZVAU_clean'
_cell_length_a 11.3457
_cell_length_b 11.468
_cell_length_c 18.2077
_cell_angle_alpha 97.5296
_cell_angle_beta 90
_cell_angle_gamma 90
_space_group_name_H-M_alt 'P 1'
_space_group_name_Hall 'P 1'
loop_
    _symmetry_equiv_pos_as_xyz
    x,y,z
loop_
    _atom_site_label
    _atom_site_type_symbol
    _atom_site_fract_x
    _atom_site_fract_y
    _atom_site_fract_z
    _atom_site_occupancy
    Co1      Co       0.50000    0.00000    0.00000    1.000
    Co2      Co       0.50000    0.50000    0.50000    1.000
    Co3      Co       0.24810    0.75000    0.75000    1.000
    Co4      Co       0.75190    0.25000    0.25000    1.000
    H1       H        0.55450    0.96090    0.83480    1.000
    H2       H        0.65820    0.66980    0.84170    1.000
    H3       H        0.45590    0.66740    0.83690    1.000
    H4       H        0.56750    0.05620    0.73180    1.000
    H5       H        0.21510    0.56160    0.85790    1.000
    H6       H        0.48800    0.35690    0.85970    1.000
    H7       H        0.19590    0.36300    0.85940    1.000
    H8       H        0.47990    0.25380    0.95970    1.000
    H9       H        0.23330    0.31680    0.64020    1.000
    H10      H        0.83610    0.81880    0.85650    1.000
    H11      H        0.25390    0.51580    0.64410    1.000
    H12      H        0.03790    0.81880    0.85350    1.000
    H13      H        0.55450    0.53910    0.66520    1.000
    H14      H        0.65820    0.83020    0.65830    1.000
    H15      H        0.45590    0.83260    0.66310    1.000
    H16      H        0.56750    0.44380    0.76820    1.000
    H17      H        0.21510    0.93840    0.64210    1.000
    H18      H        0.48800    0.14310    0.64030    1.000
    H19      H        0.19590    0.13700    0.64060    1.000
    H20      H        0.47990    0.24620    0.54030    1.000
    H21      H        0.23330    0.18320    0.85980    1.000
    H22      H        0.83610    0.68120    0.64350    1.000
    H23      H        0.25390    0.98420    0.85590    1.000
    H24      H        0.03790    0.68120    0.64650    1.000
    H25      H        0.44550    0.03910    0.16520    1.000
    H26      H        0.34180    0.33020    0.15830    1.000
    H27      H        0.54410    0.33260    0.16310    1.000
    H28      H        0.43250    0.94380    0.26820    1.000
    H29      H        0.78490    0.43840    0.14210    1.000
    H30      H        0.51200    0.64310    0.14030    1.000
    H31      H        0.80410    0.63700    0.14060    1.000
    H32      H        0.52010    0.74620    0.04030    1.000
    H33      H        0.76670    0.68320    0.35980    1.000
    H34      H        0.16390    0.18120    0.14350    1.000
    H35      H        0.74610    0.48420    0.35590    1.000
    H36      H        0.96210    0.18120    0.14650    1.000
    H37      H        0.44550    0.46090    0.33480    1.000
    H38      H        0.34180    0.16980    0.34170    1.000
    H39      H        0.54410    0.16740    0.33690    1.000
    H40      H        0.43250    0.55620    0.23180    1.000
    H41      H        0.78490    0.06160    0.35790    1.000
    H42      H        0.51200    0.85690    0.35970    1.000
    H43      H        0.80410    0.86300    0.35940    1.000
    H44      H        0.52010    0.75380    0.45970    1.000
    H45      H        0.76670    0.81680    0.14020    1.000
    H46      H        0.16390    0.31880    0.35650    1.000
    H47      H        0.74610    0.01580    0.14410    1.000
    H48      H        0.96210    0.31880    0.35350    1.000
    C1       C        0.54060    0.04145    0.83985    1.000
    C2       C        0.61911    0.70184    0.80414    1.000
    C3       C        0.52700    0.21856    0.78296    1.000
    C4       C        0.21530    0.31464    0.75004    1.000
    C5       C        0.49733    0.70210    0.80140    1.000
    C6       C        0.54820    0.09838    0.77738    1.000
    C7       C        0.21970    0.51196    0.81336    1.000
    C8       C        0.50160    0.27625    0.85305    1.000
    C9       C        0.20840    0.39179    0.81459    1.000
    C10      C        0.49650    0.21341    0.91321    1.000
    C11      C        0.23070    0.36449    0.68559    1.000
    C12      C        0.87540    0.79089    0.81289    1.000
    C13      C        0.24210    0.48503    0.68833    1.000
    C14      C        0.99690    0.79010    0.81070    1.000
    C15      C        0.54060    0.45855    0.66015    1.000
    C16      C        0.61911    0.79816    0.69586    1.000
    C17      C        0.52700    0.28144    0.71704    1.000
    C18      C        0.21530    0.18536    0.74996    1.000
    C19      C        0.49733    0.79790    0.69860    1.000
    C20      C        0.54820    0.40162    0.72262    1.000
    C21      C        0.21970    0.98804    0.68664    1.000
    C22      C        0.50160    0.22375    0.64695    1.000
    C23      C        0.20840    0.10821    0.68541    1.000
    C24      C        0.49650    0.28659    0.58679    1.000
    C25      C        0.23070    0.13551    0.81441    1.000
    C26      C        0.87540    0.70911    0.68711    1.000
    C27      C        0.24210    0.01497    0.81167    1.000
    C28      C        0.99690    0.70990    0.68930    1.000
    C29      C        0.45940    0.95855    0.16015    1.000
    C30      C        0.38089    0.29816    0.19586    1.000
    C31      C        0.47300    0.78144    0.21704    1.000
    C32      C        0.78470    0.68536    0.24996    1.000
    C33      C        0.50267    0.29790    0.19860    1.000
    C34      C        0.45180    0.90162    0.22262    1.000
    C35      C        0.78030    0.48804    0.18664    1.000
    C36      C        0.49840    0.72375    0.14695    1.000
    C37      C        0.79160    0.60821    0.18541    1.000
    C38      C        0.50350    0.78659    0.08679    1.000
    C39      C        0.76930    0.63551    0.31441    1.000
    C40      C        0.12460    0.20911    0.18711    1.000
    C41      C        0.75790    0.51497    0.31167    1.000
    C42      C        0.00310    0.20990    0.18930    1.000
    C43      C        0.45940    0.54145    0.33985    1.000
    C44      C        0.38089    0.20184    0.30414    1.000
    C45      C        0.47300    0.71856    0.28296    1.000
    C46      C        0.78470    0.81464    0.25004    1.000
    C47      C        0.50267    0.20210    0.30140    1.000
    C48      C        0.45180    0.59838    0.27738    1.000
    C49      C        0.78030    0.01196    0.31336    1.000
    C50      C        0.49840    0.77625    0.35305    1.000
    C51      C        0.79160    0.89179    0.31459    1.000
    C52      C        0.50350    0.71341    0.41321    1.000
    C53      C        0.76930    0.86449    0.18559    1.000
    C54      C        0.12460    0.29089    0.31289    1.000
    C55      C        0.75790    0.98503    0.18833    1.000
    C56      C        0.00310    0.29010    0.31070    1.000
    C57      C        0.81250    0.75000    0.75000    1.000
    C58      C        0.68230    0.75000    0.75000    1.000
    C59      C        0.18750    0.25000    0.25000    1.000
    C60      C        0.31770    0.25000    0.25000    1.000
    S1       S        0.29810    0.80075    0.93975    1.000
    S2       S        0.29810    0.69925    0.56025    1.000
    S3       S        0.70190    0.19925    0.06025    1.000
    S4       S        0.70190    0.30075    0.43975    1.000
    N1       N        0.23697    0.55947    0.75108    1.000
    N2       N        0.51429    0.09697    0.90715    1.000
    N3       N        0.23697    0.94053    0.74892    1.000
    N4       N        0.51429    0.40303    0.59285    1.000
    N5       N        0.76303    0.44053    0.24892    1.000
    N6       N        0.48571    0.90303    0.09285    1.000
    N7       N        0.76303    0.05947    0.25108    1.000
    N8       N        0.48571    0.59697    0.40715    1.000
    N9       N        0.43640    0.75000    0.75000    1.000
    N10      N        0.05850    0.75000    0.75000    1.000
    N11      N        0.56360    0.25000    0.25000    1.000
    N12      N        0.94150    0.25000    0.25000    1.000
    O1       O        0.40967    0.86622    0.93331    1.000
    O2       O        0.24555    0.77444    0.86528    1.000
    O3       O        0.32170    0.69071    0.96791    1.000
    O4       O        0.21610    0.87567    0.98667    1.000
    O5       O        0.40967    0.63378    0.56669    1.000
    O6       O        0.24555    0.72556    0.63472    1.000
    O7       O        0.32170    0.80929    0.53209    1.000
    O8       O        0.21610    0.62433    0.51333    1.000
    O9       O        0.59033    0.13378    0.06669    1.000
    O10      O        0.75445    0.22556    0.13472    1.000
    O11      O        0.67830    0.30929    0.03209    1.000
    O12      O        0.78390    0.12433    0.01333    1.000
    O13      O        0.59033    0.36622    0.43331    1.000
    O14      O        0.75445    0.27444    0.36528    1.000
    O15      O        0.67830    0.19071    0.46791    1.000
    O16      O        0.78390    0.37567    0.48667    1.000
