# CIF file generated by openbabel 3.1.0, see https://openbabel.org
data_I
_chemical_name_common 'image0'
_cell_length_a 26.4701
_cell_length_b 26.4701
_cell_length_c 5.1884
_cell_angle_alpha 90
_cell_angle_beta 90
_cell_angle_gamma 90
_space_group_name_H-M_alt 'P 1'
_space_group_name_Hall 'P 1'
loop_
    _symmetry_equiv_pos_as_xyz
    x,y,z
loop_
    _atom_site_label
    _atom_site_type_symbol
    _atom_site_fract_x
    _atom_site_fract_y
    _atom_site_fract_z
    _atom_site_occupancy
    Zn1      Zn       0.27172    0.21431    0.92217    1.000
    O1       O        0.22160    0.25470    0.09020    1.000
    H1       H        0.20080    0.26570    0.97830    1.000
    N1       N        0.24900    0.14220    0.91500    1.000
    C1       C        0.26360    0.10450    0.05940    1.000
    H2       H        0.28850    0.10770    0.18480    1.000
    N2       N        0.23940    0.06020    0.01140    1.000
    C2       C        0.21119    0.12180    0.75610    1.000
    O2       O        0.27650    0.83370    0.37040    1.000
    C3       C        0.18230    0.14420    0.56590    1.000
    H3       H        0.18660    0.17810    0.52430    1.000
    O3       O        0.30770    0.87160    0.69200    1.000
    C4       C        0.14670    0.11500    0.43830    1.000
    C5       C        0.11760    0.13560    0.24320    1.000
    H4       H        0.12220    0.16940    0.20000    1.000
    C6       C        0.08190    0.10750    0.10970    1.000
    H5       H        0.06240    0.12230    0.98120    1.000
    C7       C        0.07590    0.05680    0.17210    1.000
    H6       H        0.05240    0.03720    0.08400    1.000
    C8       C        0.10480    0.03560    0.36520    1.000
    H7       H        0.10020    0.00170    0.40660    1.000
    C9       C        0.14080    0.06370    0.49990    1.000
    C10      C        0.17010    0.04140    0.69050    1.000
    H8       H        0.16660    0.00740    0.73040    1.000
    C11      C        0.20460    0.07120    0.81880    1.000
    C12      C        0.25420    0.01290    0.11680    1.000
    C13      C        0.28370    0.92180    0.32970    1.000
    C14      C        0.27260    0.01020    0.36580    1.000
    H9       H        0.27500    0.03980    0.46190    1.000
    C15      C        0.28740    0.96550    0.47630    1.000
    H10      H        0.29960    0.96450    0.64440    1.000
    C16      C        0.26540    0.92210    0.08010    1.000
    H11      H        0.26280    0.89240    0.98520    1.000
    C17      C        0.25090    0.96800    0.97610    1.000
    H12      H        0.23870    0.96900    0.80810    1.000
    C18      C        0.29580    0.87150    0.45500    1.000
    O4       O        0.34460    0.87210    0.55000    1.000
    C19      C        0.30400    0.00610    0.18180    1.000
    H13      H        0.32710    0.03190    0.15420    1.000
    C20      C        0.32020    0.96010    0.29000    1.000
    H14      H        0.35390    0.95500    0.33400    1.000
    C21      C        0.23240    0.92680    0.26400    1.000
    H15      H        0.20880    0.90120    0.28820    1.000
    C22      C        0.22000    0.97410    0.15900    1.000
    H16      H        0.18650    0.97980    0.11520    1.000
    Zn2      Zn       0.77172    0.71431    0.42217    1.000
    O5       O        0.72160    0.75470    0.59020    1.000
    H17      H        0.70080    0.76570    0.47830    1.000
    N3       N        0.74900    0.64220    0.41500    1.000
    C23      C        0.76360    0.60450    0.55940    1.000
    H18      H        0.78850    0.60770    0.68480    1.000
    N4       N        0.73940    0.56020    0.51140    1.000
    C24      C        0.71119    0.62180    0.25610    1.000
    O6       O        0.77650    0.33370    0.87040    1.000
    C25      C        0.68230    0.64420    0.06590    1.000
    H19      H        0.68660    0.67810    0.02430    1.000
    O7       O        0.80770    0.37160    0.19200    1.000
    C26      C        0.64670    0.61500    0.93830    1.000
    C27      C        0.61760    0.63560    0.74320    1.000
    H20      H        0.62220    0.66940    0.70000    1.000
    C28      C        0.58190    0.60750    0.60970    1.000
    H21      H        0.56240    0.62230    0.48120    1.000
    C29      C        0.57590    0.55680    0.67210    1.000
    H22      H        0.55240    0.53720    0.58400    1.000
    C30      C        0.60480    0.53560    0.86520    1.000
    H23      H        0.60020    0.50170    0.90660    1.000
    C31      C        0.64080    0.56370    0.99990    1.000
    C32      C        0.67010    0.54140    0.19050    1.000
    H24      H        0.66660    0.50740    0.23040    1.000
    C33      C        0.70460    0.57120    0.31880    1.000
    C34      C        0.75420    0.51290    0.61680    1.000
    C35      C        0.78370    0.42180    0.82970    1.000
    C36      C        0.77260    0.51020    0.86580    1.000
    H25      H        0.77500    0.53980    0.96190    1.000
    C37      C        0.78740    0.46550    0.97630    1.000
    H26      H        0.79960    0.46450    0.14440    1.000
    C38      C        0.76540    0.42210    0.58010    1.000
    H27      H        0.76280    0.39240    0.48520    1.000
    C39      C        0.75090    0.46800    0.47610    1.000
    H28      H        0.73870    0.46900    0.30810    1.000
    C40      C        0.79580    0.37150    0.95500    1.000
    O8       O        0.84460    0.37210    0.05000    1.000
    C41      C        0.80400    0.50610    0.68180    1.000
    H29      H        0.82710    0.53190    0.65420    1.000
    C42      C        0.82020    0.46010    0.79000    1.000
    H30      H        0.85390    0.45500    0.83400    1.000
    C43      C        0.73240    0.42680    0.76400    1.000
    H31      H        0.70880    0.40120    0.78820    1.000
    C44      C        0.72000    0.47410    0.65900    1.000
    H32      H        0.68650    0.47980    0.61520    1.000
    Zn3      Zn       0.72828    0.78569    0.92217    1.000
    O9       O        0.77840    0.74530    0.09020    1.000
    H33      H        0.79920    0.73430    0.97830    1.000
    N5       N        0.75100    0.85780    0.91500    1.000
    C45      C        0.73640    0.89550    0.05940    1.000
    H34      H        0.71150    0.89230    0.18480    1.000
    N6       N        0.76060    0.93980    0.01140    1.000
    C46      C        0.78881    0.87820    0.75610    1.000
    O10      O        0.72350    0.16630    0.37040    1.000
    C47      C        0.81770    0.85580    0.56590    1.000
    H35      H        0.81340    0.82190    0.52430    1.000
    O11      O        0.69230    0.12840    0.69200    1.000
    C48      C        0.85330    0.88500    0.43830    1.000
    C49      C        0.88240    0.86440    0.24320    1.000
    H36      H        0.87780    0.83060    0.20000    1.000
    C50      C        0.91810    0.89250    0.10970    1.000
    H37      H        0.93760    0.87770    0.98120    1.000
    C51      C        0.92410    0.94320    0.17210    1.000
    H38      H        0.94760    0.96280    0.08400    1.000
    C52      C        0.89520    0.96440    0.36520    1.000
    H39      H        0.89980    0.99830    0.40660    1.000
    C53      C        0.85920    0.93630    0.49990    1.000
    C54      C        0.82990    0.95860    0.69050    1.000
    H40      H        0.83340    0.99260    0.73040    1.000
    C55      C        0.79540    0.92880    0.81880    1.000
    C56      C        0.74580    0.98710    0.11680    1.000
    C57      C        0.71630    0.07820    0.32970    1.000
    C58      C        0.72740    0.98980    0.36580    1.000
    H41      H        0.72500    0.96020    0.46190    1.000
    C59      C        0.71260    0.03450    0.47630    1.000
    H42      H        0.70040    0.03550    0.64440    1.000
    C60      C        0.73460    0.07790    0.08010    1.000
    H43      H        0.73720    0.10760    0.98520    1.000
    C61      C        0.74910    0.03200    0.97610    1.000
    H44      H        0.76130    0.03100    0.80810    1.000
    C62      C        0.70420    0.12850    0.45500    1.000
    O12      O        0.65540    0.12790    0.55000    1.000
    C63      C        0.69600    0.99390    0.18180    1.000
    H45      H        0.67290    0.96810    0.15420    1.000
    C64      C        0.67980    0.03990    0.29000    1.000
    H46      H        0.64610    0.04500    0.33400    1.000
    C65      C        0.76760    0.07320    0.26400    1.000
    H47      H        0.79120    0.09880    0.28820    1.000
    C66      C        0.78000    0.02590    0.15900    1.000
    H48      H        0.81350    0.02020    0.11520    1.000
    Zn4      Zn       0.22828    0.28569    0.42217    1.000
    O13      O        0.27840    0.24530    0.59020    1.000
    H49      H        0.29920    0.23430    0.47830    1.000
    N7       N        0.25100    0.35780    0.41500    1.000
    C67      C        0.23640    0.39550    0.55940    1.000
    H50      H        0.21150    0.39230    0.68480    1.000
    N8       N        0.26060    0.43980    0.51140    1.000
    C68      C        0.28881    0.37820    0.25610    1.000
    O14      O        0.22350    0.66630    0.87040    1.000
    C69      C        0.31770    0.35580    0.06590    1.000
    H51      H        0.31340    0.32190    0.02430    1.000
    O15      O        0.19230    0.62840    0.19200    1.000
    C70      C        0.35330    0.38500    0.93830    1.000
    C71      C        0.38240    0.36440    0.74320    1.000
    H52      H        0.37780    0.33060    0.70000    1.000
    C72      C        0.41810    0.39250    0.60970    1.000
    H53      H        0.43760    0.37770    0.48120    1.000
    C73      C        0.42410    0.44320    0.67210    1.000
    H54      H        0.44760    0.46280    0.58400    1.000
    C74      C        0.39520    0.46440    0.86520    1.000
    H55      H        0.39980    0.49830    0.90660    1.000
    C75      C        0.35920    0.43630    0.99990    1.000
    C76      C        0.32990    0.45860    0.19050    1.000
    H56      H        0.33340    0.49260    0.23040    1.000
    C77      C        0.29540    0.42880    0.31880    1.000
    C78      C        0.24580    0.48710    0.61680    1.000
    C79      C        0.21630    0.57820    0.82970    1.000
    C80      C        0.22740    0.48980    0.86580    1.000
    H57      H        0.22500    0.46020    0.96190    1.000
    C81      C        0.21260    0.53450    0.97630    1.000
    H58      H        0.20040    0.53550    0.14440    1.000
    C82      C        0.23460    0.57790    0.58010    1.000
    H59      H        0.23720    0.60760    0.48520    1.000
    C83      C        0.24910    0.53200    0.47610    1.000
    H60      H        0.26130    0.53100    0.30810    1.000
    C84      C        0.20420    0.62850    0.95500    1.000
    O16      O        0.15540    0.62790    0.05000    1.000
    C85      C        0.19600    0.49390    0.68180    1.000
    H61      H        0.17290    0.46810    0.65420    1.000
    C86      C        0.17980    0.53990    0.79000    1.000
    H62      H        0.14610    0.54500    0.83400    1.000
    C87      C        0.26760    0.57320    0.76400    1.000
    H63      H        0.29120    0.59880    0.78820    1.000
    C88      C        0.28000    0.52590    0.65900    1.000
    H64      H        0.31350    0.52020    0.61520    1.000
    Zn5      Zn       0.21431    0.72828    0.07783    1.000
    O17      O        0.25470    0.77840    0.90980    1.000
    H65      H        0.26570    0.79920    0.02170    1.000
    N9       N        0.14220    0.75100    0.08500    1.000
    C89      C        0.10450    0.73640    0.94060    1.000
    H66      H        0.10770    0.71150    0.81520    1.000
    N10      N        0.06020    0.76060    0.98860    1.000
    C90      C        0.12180    0.78881    0.24390    1.000
    O18      O        0.83370    0.72350    0.62960    1.000
    C91      C        0.14420    0.81770    0.43410    1.000
    H67      H        0.17810    0.81340    0.47570    1.000
    O19      O        0.87160    0.69230    0.30800    1.000
    C92      C        0.11500    0.85330    0.56170    1.000
    C93      C        0.13560    0.88240    0.75680    1.000
    H68      H        0.16940    0.87780    0.80000    1.000
    C94      C        0.10750    0.91810    0.89030    1.000
    H69      H        0.12230    0.93760    0.01880    1.000
    C95      C        0.05680    0.92410    0.82790    1.000
    H70      H        0.03720    0.94760    0.91600    1.000
    C96      C        0.03560    0.89520    0.63480    1.000
    H71      H        0.00170    0.89980    0.59340    1.000
    C97      C        0.06370    0.85920    0.50010    1.000
    C98      C        0.04140    0.82990    0.30950    1.000
    H72      H        0.00740    0.83340    0.26960    1.000
    C99      C        0.07120    0.79540    0.18120    1.000
    C100     C        0.01290    0.74580    0.88320    1.000
    C101     C        0.92180    0.71630    0.67030    1.000
    C102     C        0.01020    0.72740    0.63420    1.000
    H73      H        0.03980    0.72500    0.53810    1.000
    C103     C        0.96550    0.71260    0.52370    1.000
    H74      H        0.96450    0.70040    0.35560    1.000
    C104     C        0.92210    0.73460    0.91990    1.000
    H75      H        0.89240    0.73720    0.01480    1.000
    C105     C        0.96800    0.74910    0.02390    1.000
    H76      H        0.96900    0.76130    0.19190    1.000
    C106     C        0.87150    0.70420    0.54500    1.000
    O20      O        0.87210    0.65540    0.45000    1.000
    C107     C        0.00610    0.69600    0.81820    1.000
    H77      H        0.03190    0.67290    0.84580    1.000
    C108     C        0.96010    0.67980    0.71000    1.000
    H78      H        0.95500    0.64610    0.66600    1.000
    C109     C        0.92680    0.76760    0.73600    1.000
    H79      H        0.90120    0.79120    0.71180    1.000
    C110     C        0.97410    0.78000    0.84100    1.000
    H80      H        0.97980    0.81350    0.88480    1.000
    Zn6      Zn       0.71431    0.22828    0.57783    1.000
    O21      O        0.75470    0.27840    0.40980    1.000
    H81      H        0.76570    0.29920    0.52170    1.000
    N11      N        0.64220    0.25100    0.58500    1.000
    C111     C        0.60450    0.23640    0.44060    1.000
    H82      H        0.60770    0.21150    0.31520    1.000
    N12      N        0.56020    0.26060    0.48860    1.000
    C112     C        0.62180    0.28881    0.74390    1.000
    O22      O        0.33370    0.22350    0.12960    1.000
    C113     C        0.64420    0.31770    0.93410    1.000
    H83      H        0.67810    0.31340    0.97570    1.000
    O23      O        0.37160    0.19230    0.80800    1.000
    C114     C        0.61500    0.35330    0.06170    1.000
    C115     C        0.63560    0.38240    0.25680    1.000
    H84      H        0.66940    0.37780    0.30000    1.000
    C116     C        0.60750    0.41810    0.39030    1.000
    H85      H        0.62230    0.43760    0.51880    1.000
    C117     C        0.55680    0.42410    0.32790    1.000
    H86      H        0.53720    0.44760    0.41600    1.000
    C118     C        0.53560    0.39520    0.13480    1.000
    H87      H        0.50170    0.39980    0.09340    1.000
    C119     C        0.56370    0.35920    0.00010    1.000
    C120     C        0.54140    0.32990    0.80950    1.000
    H88      H        0.50740    0.33340    0.76960    1.000
    C121     C        0.57120    0.29540    0.68120    1.000
    C122     C        0.51290    0.24580    0.38320    1.000
    C123     C        0.42180    0.21630    0.17030    1.000
    C124     C        0.51020    0.22740    0.13420    1.000
    H89      H        0.53980    0.22500    0.03810    1.000
    C125     C        0.46550    0.21260    0.02370    1.000
    H90      H        0.46450    0.20040    0.85560    1.000
    C126     C        0.42210    0.23460    0.41990    1.000
    H91      H        0.39240    0.23720    0.51480    1.000
    C127     C        0.46800    0.24910    0.52390    1.000
    H92      H        0.46900    0.26130    0.69190    1.000
    C128     C        0.37150    0.20420    0.04500    1.000
    O24      O        0.37210    0.15540    0.95000    1.000
    C129     C        0.50610    0.19600    0.31820    1.000
    H93      H        0.53190    0.17290    0.34580    1.000
    C130     C        0.46010    0.17980    0.21000    1.000
    H94      H        0.45500    0.14610    0.16600    1.000
    C131     C        0.42680    0.26760    0.23600    1.000
    H95      H        0.40120    0.29120    0.21180    1.000
    C132     C        0.47410    0.28000    0.34100    1.000
    H96      H        0.47980    0.31350    0.38480    1.000
    Zn7      Zn       0.78569    0.27172    0.07783    1.000
    O25      O        0.74530    0.22160    0.90980    1.000
    H97      H        0.73430    0.20080    0.02170    1.000
    N13      N        0.85780    0.24900    0.08500    1.000
    C133     C        0.89550    0.26360    0.94060    1.000
    H98      H        0.89230    0.28850    0.81520    1.000
    N14      N        0.93980    0.23940    0.98860    1.000
    C134     C        0.87820    0.21119    0.24390    1.000
    O26      O        0.16630    0.27650    0.62960    1.000
    C135     C        0.85580    0.18230    0.43410    1.000
    H99      H        0.82190    0.18660    0.47570    1.000
    O27      O        0.12840    0.30770    0.30800    1.000
    C136     C        0.88500    0.14670    0.56170    1.000
    C137     C        0.86440    0.11760    0.75680    1.000
    H100     H        0.83060    0.12220    0.80000    1.000
    C138     C        0.89250    0.08190    0.89030    1.000
    H101     H        0.87770    0.06240    0.01880    1.000
    C139     C        0.94320    0.07590    0.82790    1.000
    H102     H        0.96280    0.05240    0.91600    1.000
    C140     C        0.96440    0.10480    0.63480    1.000
    H103     H        0.99830    0.10020    0.59340    1.000
    C141     C        0.93630    0.14080    0.50010    1.000
    C142     C        0.95860    0.17010    0.30950    1.000
    H104     H        0.99260    0.16660    0.26960    1.000
    C143     C        0.92880    0.20460    0.18120    1.000
    C144     C        0.98710    0.25420    0.88320    1.000
    C145     C        0.07820    0.28370    0.67030    1.000
    C146     C        0.98980    0.27260    0.63420    1.000
    H105     H        0.96020    0.27500    0.53810    1.000
    C147     C        0.03450    0.28740    0.52370    1.000
    H106     H        0.03550    0.29960    0.35560    1.000
    C148     C        0.07790    0.26540    0.91990    1.000
    H107     H        0.10760    0.26280    0.01480    1.000
    C149     C        0.03200    0.25090    0.02390    1.000
    H108     H        0.03100    0.23870    0.19190    1.000
    C150     C        0.12850    0.29580    0.54500    1.000
    O28      O        0.12790    0.34460    0.45000    1.000
    C151     C        0.99390    0.30400    0.81820    1.000
    H109     H        0.96810    0.32710    0.84580    1.000
    C152     C        0.03990    0.32020    0.71000    1.000
    H110     H        0.04500    0.35390    0.66600    1.000
    C153     C        0.07320    0.23240    0.73600    1.000
    H111     H        0.09880    0.20880    0.71180    1.000
    C154     C        0.02590    0.22000    0.84100    1.000
    H112     H        0.02020    0.18650    0.88480    1.000
    Zn8      Zn       0.28569    0.77172    0.57783    1.000
    O29      O        0.24530    0.72160    0.40980    1.000
    H113     H        0.23430    0.70080    0.52170    1.000
    N15      N        0.35780    0.74900    0.58500    1.000
    C155     C        0.39550    0.76360    0.44060    1.000
    H114     H        0.39230    0.78850    0.31520    1.000
    N16      N        0.43980    0.73940    0.48860    1.000
    C156     C        0.37820    0.71119    0.74390    1.000
    O30      O        0.66630    0.77650    0.12960    1.000
    C157     C        0.35580    0.68230    0.93410    1.000
    H115     H        0.32190    0.68660    0.97570    1.000
    O31      O        0.62840    0.80770    0.80800    1.000
    C158     C        0.38500    0.64670    0.06170    1.000
    C159     C        0.36440    0.61760    0.25680    1.000
    H116     H        0.33060    0.62220    0.30000    1.000
    C160     C        0.39250    0.58190    0.39030    1.000
    H117     H        0.37770    0.56240    0.51880    1.000
    C161     C        0.44320    0.57590    0.32790    1.000
    H118     H        0.46280    0.55240    0.41600    1.000
    C162     C        0.46440    0.60480    0.13480    1.000
    H119     H        0.49830    0.60020    0.09340    1.000
    C163     C        0.43630    0.64080    0.00010    1.000
    C164     C        0.45860    0.67010    0.80950    1.000
    H120     H        0.49260    0.66660    0.76960    1.000
    C165     C        0.42880    0.70460    0.68120    1.000
    C166     C        0.48710    0.75420    0.38320    1.000
    C167     C        0.57820    0.78370    0.17030    1.000
    C168     C        0.48980    0.77260    0.13420    1.000
    H121     H        0.46020    0.77500    0.03810    1.000
    C169     C        0.53450    0.78740    0.02370    1.000
    H122     H        0.53550    0.79960    0.85560    1.000
    C170     C        0.57790    0.76540    0.41990    1.000
    H123     H        0.60760    0.76280    0.51480    1.000
    C171     C        0.53200    0.75090    0.52390    1.000
    H124     H        0.53100    0.73870    0.69190    1.000
    C172     C        0.62850    0.79580    0.04500    1.000
    O32      O        0.62790    0.84460    0.95000    1.000
    C173     C        0.49390    0.80400    0.31820    1.000
    H125     H        0.46810    0.82710    0.34580    1.000
    C174     C        0.53990    0.82020    0.21000    1.000
    H126     H        0.54500    0.85390    0.16600    1.000
    C175     C        0.57320    0.73240    0.23600    1.000
    H127     H        0.59880    0.70880    0.21180    1.000
    C176     C        0.52590    0.72000    0.34100    1.000
    H128     H        0.52020    0.68650    0.38480    1.000
