# CIF file generated by openbabel 3.1.0, see https://openbabel.org
data_I
_chemical_name_common 'image0'
_cell_length_a 9.5256
_cell_length_b 12.1272
_cell_length_c 15.8886
_cell_angle_alpha 88.508
_cell_angle_beta 74.677
_cell_angle_gamma 70.379
_space_group_name_H-M_alt 'P 1'
_space_group_name_Hall 'P 1'
loop_
    _symmetry_equiv_pos_as_xyz
    x,y,z
loop_
    _atom_site_label
    _atom_site_type_symbol
    _atom_site_fract_x
    _atom_site_fract_y
    _atom_site_fract_z
    _atom_site_occupancy
    Nd1      Nd       0.29541    0.97580    0.01839    1.000
    O1       O        0.13110    0.88290    0.11647    1.000
    O2       O        0.01270    0.75880    0.09793    1.000
    H1       H        0.98740    0.80480    0.05980    1.000
    O3       O        0.23680    0.06540    0.16480    1.000
    O4       O        0.44710    0.09530    0.08481    1.000
    O5       O        0.53570    0.16660    0.91133    1.000
    O6       O        0.31810    0.12710    0.92602    1.000
    O7       O        0.20800    0.89220    0.91378    1.000
    O8       O        0.96900    0.88180    0.96142    1.000
    C1       C        0.22420    0.55090    0.44030    1.000
    C2       C        0.27310    0.42750    0.44130    1.000
    C3       C        0.30250    0.37650    0.51690    1.000
    H2       H        0.33690    0.29340    0.51670    1.000
    C4       C        0.28430    0.44090    0.59350    1.000
    C5       C        0.23280    0.56410    0.59300    1.000
    C6       C        0.20700    0.61520    0.51630    1.000
    H3       H        0.17610    0.69830    0.51570    1.000
    C7       C        0.18640    0.61500    0.36340    1.000
    C8       C        0.21950    0.71850    0.34330    1.000
    H4       H        0.26460    0.74840    0.38000    1.000
    C9       C        0.18800    0.77800    0.27130    1.000
    H5       H        0.21200    0.84760    0.25880    1.000
    C10      C        0.12050    0.73560    0.21690    1.000
    C11      C        0.08560    0.63350    0.23660    1.000
    H6       H        0.04110    0.60360    0.19960    1.000
    C12      C        0.11530    0.57550    0.30930    1.000
    H7       H        0.08710    0.50770    0.32300    1.000
    C13      C        0.09000    0.79850    0.13940    1.000
    C14      C        0.29440    0.34580    0.36680    1.000
    C15      C        0.40440    0.33680    0.28720    1.000
    H8       H        0.46590    0.38580    0.27870    1.000
    C16      C        0.42510    0.25660    0.21990    1.000
    H9       H        0.50450    0.24810    0.16710    1.000
    C17      C        0.32950    0.18890    0.22990    1.000
    C18      C        0.21940    0.19850    0.30870    1.000
    H10      H        0.15350    0.15310    0.31580    1.000
    C19      C        0.20400    0.27350    0.37730    1.000
    H11      H        0.13160    0.27600    0.43200    1.000
    C20      C        0.33880    0.11140    0.15580    1.000
    C21      C        0.32080    0.37450    0.66950    1.000
    C22      C        0.27650    0.27560    0.68940    1.000
    H12      H        0.22570    0.25110    0.65330    1.000
    C23      C        0.30560    0.21330    0.76050    1.000
    H13      H        0.27200    0.14780    0.77370    1.000
    C24      C        0.38390    0.24550    0.81320    1.000
    C25      C        0.43320    0.34140    0.79200    1.000
    H14      H        0.49010    0.36270    0.82570    1.000
    C26      C        0.39970    0.40530    0.72220    1.000
    H15      H        0.43110    0.47190    0.70990    1.000
    C27      C        0.41520    0.17540    0.88960    1.000
    C28      C        0.19420    0.64330    0.67240    1.000
    C29      C        0.09620    0.63030    0.75110    1.000
    H16      H        0.05370    0.56930    0.75450    1.000
    C30      C        0.05890    0.70450    0.82490    1.000
    H17      H        0.98820    0.69620    0.87740    1.000
    C31      C        0.12570    0.79070    0.82160    1.000
    C32      C        0.22180    0.80630    0.74330    1.000
    H18      H        0.26610    0.86620    0.74060    1.000
    C33      C        0.25410    0.73450    0.66840    1.000
    H19      H        0.31680    0.74770    0.61450    1.000
    C34      C        0.09870    0.86170    0.90380    1.000
    Nd2      Nd       0.70459    0.02420    0.98161    1.000
    O9       O        0.86890    0.11710    0.88353    1.000
    O10      O        0.98730    0.24120    0.90207    1.000
    H20      H        0.01260    0.19520    0.94020    1.000
    O11      O        0.76320    0.93460    0.83520    1.000
    O12      O        0.55290    0.90470    0.91519    1.000
    O13      O        0.46430    0.83340    0.08867    1.000
    O14      O        0.68190    0.87290    0.07398    1.000
    O15      O        0.79200    0.10780    0.08622    1.000
    O16      O        0.03100    0.11820    0.03858    1.000
    C35      C        0.77580    0.44910    0.55970    1.000
    C36      C        0.72690    0.57250    0.55870    1.000
    C37      C        0.69750    0.62350    0.48310    1.000
    H21      H        0.66310    0.70660    0.48330    1.000
    C38      C        0.71570    0.55910    0.40650    1.000
    C39      C        0.76720    0.43590    0.40700    1.000
    C40      C        0.79300    0.38480    0.48370    1.000
    H22      H        0.82390    0.30170    0.48430    1.000
    C41      C        0.81360    0.38500    0.63660    1.000
    C42      C        0.78050    0.28150    0.65670    1.000
    H23      H        0.73540    0.25160    0.62000    1.000
    C43      C        0.81200    0.22200    0.72870    1.000
    H24      H        0.78800    0.15240    0.74120    1.000
    C44      C        0.87950    0.26440    0.78310    1.000
    C45      C        0.91440    0.36650    0.76340    1.000
    H25      H        0.95890    0.39640    0.80040    1.000
    C46      C        0.88470    0.42450    0.69070    1.000
    H26      H        0.91290    0.49230    0.67700    1.000
    C47      C        0.91000    0.20150    0.86060    1.000
    C48      C        0.70560    0.65420    0.63320    1.000
    C49      C        0.59560    0.66320    0.71280    1.000
    H27      H        0.53410    0.61420    0.72130    1.000
    C50      C        0.57490    0.74340    0.78010    1.000
    H28      H        0.49550    0.75190    0.83290    1.000
    C51      C        0.67050    0.81110    0.77010    1.000
    C52      C        0.78060    0.80150    0.69130    1.000
    H29      H        0.84650    0.84690    0.68420    1.000
    C53      C        0.79600    0.72650    0.62270    1.000
    H30      H        0.86840    0.72400    0.56800    1.000
    C54      C        0.66120    0.88860    0.84420    1.000
    C55      C        0.67920    0.62550    0.33050    1.000
    C56      C        0.72350    0.72440    0.31060    1.000
    H31      H        0.77430    0.74890    0.34670    1.000
    C57      C        0.69440    0.78670    0.23950    1.000
    H32      H        0.72800    0.85220    0.22630    1.000
    C58      C        0.61610    0.75450    0.18680    1.000
    C59      C        0.56680    0.65860    0.20800    1.000
    H33      H        0.50990    0.63730    0.17430    1.000
    C60      C        0.60030    0.59470    0.27780    1.000
    H34      H        0.56890    0.52810    0.29010    1.000
    C61      C        0.58480    0.82460    0.11040    1.000
    C62      C        0.80580    0.35670    0.32760    1.000
    C63      C        0.90380    0.36970    0.24890    1.000
    H35      H        0.94630    0.43070    0.24550    1.000
    C64      C        0.94110    0.29550    0.17510    1.000
    H36      H        0.01180    0.30380    0.12260    1.000
    C65      C        0.87430    0.20930    0.17840    1.000
    C66      C        0.77820    0.19370    0.25670    1.000
    H37      H        0.73390    0.13380    0.25940    1.000
    C67      C        0.74590    0.26550    0.33160    1.000
    H38      H        0.68320    0.25230    0.38550    1.000
    C68      C        0.90130    0.13830    0.09620    1.000
