# CIF file generated by openbabel 3.1.0, see https://openbabel.org
data_I
_chemical_name_common 'image0'
_cell_length_a 25.0986
_cell_length_b 4.8666
_cell_length_c 24.0359
_cell_angle_alpha 90
_cell_angle_beta 117.2
_cell_angle_gamma 90
_space_group_name_H-M_alt 'P 1'
_space_group_name_Hall 'P 1'
loop_
    _symmetry_equiv_pos_as_xyz
    x,y,z
loop_
    _atom_site_label
    _atom_site_type_symbol
    _atom_site_fract_x
    _atom_site_fract_y
    _atom_site_fract_z
    _atom_site_occupancy
    Be1      Be       0.18285    0.67060    0.24933    1.000
    Be2      Be       0.05990    0.65320    0.34050    1.000
    Be3      Be       0.26060    0.51750    0.57071    1.000
    P1       P        0.23747    0.16266    0.31487    1.000
    P2       P        0.06565    0.48725    0.22332    1.000
    P3       P        0.17659    0.47397    0.43645    1.000
    O1       O        0.21413    0.46280    0.31077    1.000
    O2       O        0.26461    0.07280    0.38292    1.000
    O3       O        0.28541    0.14720    0.29415    1.000
    O4       O        0.18351    0.98320    0.27404    1.000
    O5       O        0.11258    0.59450    0.20528    1.000
    O6       O        0.06975    0.16700    0.22610    1.000
    H1       H        0.10500    0.12010    0.24090    1.000
    O7       O        0.00344    0.53590    0.17115    1.000
    O8       O        0.07611    0.59900    0.28534    1.000
    O9       O        0.11057    0.53500    0.40523    1.000
    O10      O        0.20338    0.55860    0.50384    1.000
    O11      O        0.20911    0.65720    0.40555    1.000
    O12      O        0.18660    0.17650    0.42668    1.000
    O13      O        0.05807    0.98750    0.35356    1.000
    H2       H        0.02390    0.04550    0.33280    1.000
    Be4      Be       0.68285    0.17060    0.24933    1.000
    Be5      Be       0.55990    0.15320    0.34050    1.000
    Be6      Be       0.76060    0.01750    0.57071    1.000
    P4       P        0.73747    0.66266    0.31487    1.000
    P5       P        0.56565    0.98725    0.22332    1.000
    P6       P        0.67659    0.97397    0.43645    1.000
    O14      O        0.71413    0.96280    0.31077    1.000
    O15      O        0.76461    0.57280    0.38292    1.000
    O16      O        0.78541    0.64720    0.29415    1.000
    O17      O        0.68351    0.48320    0.27404    1.000
    O18      O        0.61258    0.09450    0.20528    1.000
    O19      O        0.56975    0.66700    0.22610    1.000
    H3       H        0.60500    0.62010    0.24090    1.000
    O20      O        0.50344    0.03590    0.17115    1.000
    O21      O        0.57611    0.09900    0.28534    1.000
    O22      O        0.61057    0.03500    0.40523    1.000
    O23      O        0.70338    0.05860    0.50384    1.000
    O24      O        0.70911    0.15720    0.40555    1.000
    O25      O        0.68660    0.67650    0.42668    1.000
    O26      O        0.55807    0.48750    0.35356    1.000
    H4       H        0.52390    0.54550    0.33280    1.000
    Be7      Be       0.81715    0.67060    0.25067    1.000
    Be8      Be       0.94010    0.65320    0.15950    1.000
    Be9      Be       0.73940    0.51750    0.92929    1.000
    P7       P        0.76253    0.16266    0.18513    1.000
    P8       P        0.93435    0.48725    0.27668    1.000
    P9       P        0.82341    0.47397    0.06355    1.000
    O27      O        0.78587    0.46280    0.18923    1.000
    O28      O        0.73539    0.07280    0.11708    1.000
    O29      O        0.71459    0.14720    0.20585    1.000
    O30      O        0.81649    0.98320    0.22596    1.000
    O31      O        0.88742    0.59450    0.29472    1.000
    O32      O        0.93025    0.16700    0.27390    1.000
    H5       H        0.89500    0.12010    0.25910    1.000
    O33      O        0.99656    0.53590    0.32885    1.000
    O34      O        0.92389    0.59900    0.21466    1.000
    O35      O        0.88943    0.53500    0.09477    1.000
    O36      O        0.79662    0.55860    0.99616    1.000
    O37      O        0.79089    0.65720    0.09445    1.000
    O38      O        0.81340    0.17650    0.07332    1.000
    O39      O        0.94193    0.98750    0.14644    1.000
    H6       H        0.97610    0.04550    0.16720    1.000
    Be10     Be       0.31715    0.17060    0.25067    1.000
    Be11     Be       0.44010    0.15320    0.15950    1.000
    Be12     Be       0.23940    0.01750    0.92929    1.000
    P10      P        0.26253    0.66266    0.18513    1.000
    P11      P        0.43435    0.98725    0.27668    1.000
    P12      P        0.32341    0.97397    0.06355    1.000
    O40      O        0.28587    0.96280    0.18923    1.000
    O41      O        0.23539    0.57280    0.11708    1.000
    O42      O        0.21459    0.64720    0.20585    1.000
    O43      O        0.31649    0.48320    0.22596    1.000
    O44      O        0.38742    0.09450    0.29472    1.000
    O45      O        0.43025    0.66700    0.27390    1.000
    H7       H        0.39500    0.62010    0.25910    1.000
    O46      O        0.49656    0.03590    0.32885    1.000
    O47      O        0.42389    0.09900    0.21466    1.000
    O48      O        0.38943    0.03500    0.09477    1.000
    O49      O        0.29662    0.05860    0.99616    1.000
    O50      O        0.29089    0.15720    0.09445    1.000
    O51      O        0.31340    0.67650    0.07332    1.000
    O52      O        0.44193    0.48750    0.14644    1.000
    H8       H        0.47610    0.54550    0.16720    1.000
    Be13     Be       0.81715    0.32940    0.75067    1.000
    Be14     Be       0.94010    0.34680    0.65950    1.000
    Be15     Be       0.73940    0.48250    0.42929    1.000
    P13      P        0.76253    0.83734    0.68513    1.000
    P14      P        0.93435    0.51275    0.77668    1.000
    P15      P        0.82341    0.52603    0.56355    1.000
    O53      O        0.78587    0.53720    0.68923    1.000
    O54      O        0.73539    0.92720    0.61708    1.000
    O55      O        0.71459    0.85280    0.70585    1.000
    O56      O        0.81649    0.01680    0.72596    1.000
    O57      O        0.88742    0.40550    0.79472    1.000
    O58      O        0.93025    0.83300    0.77390    1.000
    H9       H        0.89500    0.87990    0.75910    1.000
    O59      O        0.99656    0.46410    0.82885    1.000
    O60      O        0.92389    0.40100    0.71466    1.000
    O61      O        0.88943    0.46500    0.59477    1.000
    O62      O        0.79662    0.44140    0.49616    1.000
    O63      O        0.79089    0.34280    0.59445    1.000
    O64      O        0.81340    0.82350    0.57332    1.000
    O65      O        0.94193    0.01250    0.64644    1.000
    H10      H        0.97610    0.95450    0.66720    1.000
    Be16     Be       0.31715    0.82940    0.75067    1.000
    Be17     Be       0.44010    0.84680    0.65950    1.000
    Be18     Be       0.23940    0.98250    0.42929    1.000
    P16      P        0.26253    0.33734    0.68513    1.000
    P17      P        0.43435    0.01275    0.77668    1.000
    P18      P        0.32341    0.02603    0.56355    1.000
    O66      O        0.28587    0.03720    0.68923    1.000
    O67      O        0.23539    0.42720    0.61708    1.000
    O68      O        0.21459    0.35280    0.70585    1.000
    O69      O        0.31649    0.51680    0.72596    1.000
    O70      O        0.38742    0.90550    0.79472    1.000
    O71      O        0.43025    0.33300    0.77390    1.000
    H11      H        0.39500    0.37990    0.75910    1.000
    O72      O        0.49656    0.96410    0.82885    1.000
    O73      O        0.42389    0.90100    0.71466    1.000
    O74      O        0.38943    0.96500    0.59477    1.000
    O75      O        0.29662    0.94140    0.49616    1.000
    O76      O        0.29089    0.84280    0.59445    1.000
    O77      O        0.31340    0.32350    0.57332    1.000
    O78      O        0.44193    0.51250    0.64644    1.000
    H12      H        0.47610    0.45450    0.66720    1.000
    Be19     Be       0.18285    0.32940    0.74933    1.000
    Be20     Be       0.05990    0.34680    0.84050    1.000
    Be21     Be       0.26060    0.48250    0.07071    1.000
    P19      P        0.23747    0.83734    0.81487    1.000
    P20      P        0.06565    0.51275    0.72332    1.000
    P21      P        0.17659    0.52603    0.93645    1.000
    O79      O        0.21413    0.53720    0.81077    1.000
    O80      O        0.26461    0.92720    0.88292    1.000
    O81      O        0.28541    0.85280    0.79415    1.000
    O82      O        0.18351    0.01680    0.77404    1.000
    O83      O        0.11258    0.40550    0.70528    1.000
    O84      O        0.06975    0.83300    0.72610    1.000
    H13      H        0.10500    0.87990    0.74090    1.000
    O85      O        0.00344    0.46410    0.67115    1.000
    O86      O        0.07611    0.40100    0.78534    1.000
    O87      O        0.11057    0.46500    0.90523    1.000
    O88      O        0.20338    0.44140    0.00384    1.000
    O89      O        0.20911    0.34280    0.90555    1.000
    O90      O        0.18660    0.82350    0.92668    1.000
    O91      O        0.05807    0.01250    0.85356    1.000
    H14      H        0.02390    0.95450    0.83280    1.000
    Be22     Be       0.68285    0.82940    0.74933    1.000
    Be23     Be       0.55990    0.84680    0.84050    1.000
    Be24     Be       0.76060    0.98250    0.07071    1.000
    P22      P        0.73747    0.33734    0.81487    1.000
    P23      P        0.56565    0.01275    0.72332    1.000
    P24      P        0.67659    0.02603    0.93645    1.000
    O92      O        0.71413    0.03720    0.81077    1.000
    O93      O        0.76461    0.42720    0.88292    1.000
    O94      O        0.78541    0.35280    0.79415    1.000
    O95      O        0.68351    0.51680    0.77404    1.000
    O96      O        0.61258    0.90550    0.70528    1.000
    O97      O        0.56975    0.33300    0.72610    1.000
    H15      H        0.60500    0.37990    0.74090    1.000
    O98      O        0.50344    0.96410    0.67115    1.000
    O99      O        0.57611    0.90100    0.78534    1.000
    O100     O        0.61057    0.96500    0.90523    1.000
    O101     O        0.70338    0.94140    0.00384    1.000
    O102     O        0.70911    0.84280    0.90555    1.000
    O103     O        0.68660    0.32350    0.92668    1.000
    O104     O        0.55807    0.51250    0.85356    1.000
    H16      H        0.52390    0.45450    0.83280    1.000
