# CIF file generated by openbabel 3.1.0, see https://openbabel.org
data_I
_chemical_name_common 'NARHAR_charged'
_cell_length_a 10.1472
_cell_length_b 18.9515
_cell_length_c 21.1076
_cell_angle_alpha 115.381
_cell_angle_beta 101.681
_cell_angle_gamma 94.8436
_space_group_name_H-M_alt 'P 1'
_space_group_name_Hall 'P 1'
loop_
    _symmetry_equiv_pos_as_xyz
    x,y,z
loop_
    _atom_site_label
    _atom_site_type_symbol
    _atom_site_fract_x
    _atom_site_fract_y
    _atom_site_fract_z
    _atom_site_occupancy
    La1      La       0.12399    0.10866    0.93840    1.000
    La2      La       0.05669    0.06315    0.61446    1.000
    La3      La       0.31441    0.82974    0.93840    1.000
    La4      La       0.05777    0.55131    0.61446    1.000
    La5      La       0.87601    0.89134    0.06160    1.000
    La6      La       0.94331    0.93685    0.38554    1.000
    La7      La       0.68559    0.17026    0.06160    1.000
    La8      La       0.94223    0.44869    0.38554    1.000
    La9      La       0.03135    0.28135    0.56270    1.000
    La10     La       0.96865    0.71865    0.43730    1.000
    S1       S        0.16222    0.10204    0.46642    1.000
    S2       S        0.38641    0.02370    0.92888    1.000
    S3       S        0.76609    0.09177    0.49660    1.000
    S4       S        0.21140    0.24726    0.68752    1.000
    S5       S        0.07581    0.09057    0.77612    1.000
    S6       S        0.40849    0.27260    0.04804    1.000
    S7       S        0.80420    0.36438    0.46642    1.000
    S8       S        0.04247    0.90518    0.92888    1.000
    S9       S        0.23051    0.40483    0.49660    1.000
    S10      S        0.97612    0.44026    0.68752    1.000
    S11      S        0.20031    0.68555    0.77612    1.000
    S12      S        0.13955    0.77544    0.04804    1.000
    S13      S        0.83778    0.89796    0.53358    1.000
    S14      S        0.61359    0.97630    0.07112    1.000
    S15      S        0.23391    0.90823    0.50340    1.000
    S16      S        0.78860    0.75274    0.31248    1.000
    S17      S        0.92419    0.90943    0.22388    1.000
    S18      S        0.59151    0.72740    0.95196    1.000
    S19      S        0.19580    0.63562    0.53358    1.000
    S20      S        0.95753    0.09482    0.07112    1.000
    S21      S        0.76949    0.59517    0.50340    1.000
    S22      S        0.02388    0.55974    0.31248    1.000
    S23      S        0.79969    0.31445    0.22388    1.000
    S24      S        0.86045    0.22456    0.95196    1.000
    O1       O        0.23260    0.29740    0.76464    1.000
    O2       O        0.82364    0.07834    0.56032    1.000
    O3       O        0.08187    0.07017    0.50420    1.000
    O4       O        0.29584    0.03384    0.87046    1.000
    O5       O        0.78586    0.02856    0.43022    1.000
    O6       O        0.33659    0.06359    0.99380    1.000
    O7       O        0.13455    0.18175    0.48070    1.000
    O8       O        0.15577    0.15997    0.84504    1.000
    O9       O        0.52940    0.06050    0.94288    1.000
    O10      O        0.05977    0.21597    0.65038    1.000
    O11      O        0.27200    0.17590    0.67470    1.000
    O12      O        0.61940    0.09150    0.48904    1.000
    O13      O        0.38022    0.93832    0.90684    1.000
    O14      O        0.83733    0.16943    0.50888    1.000
    O15      O        0.10542    0.04702    0.38834    1.000
    O16      O        0.16548    0.05308    0.72948    1.000
    O17      O        0.00982    0.03492    0.79730    1.000
    O18      O        0.30680    0.10490    0.49032    1.000
    O19      O        0.25888    0.29118    0.65122    1.000
    O20      O        0.97574    0.11744    0.73376    1.000
    O21      O        0.27958    0.22788    0.01796    1.000
    O22      O        0.52200    0.24590    0.01360    1.000
    O23      O        0.47180    0.24070    0.10340    1.000
    O24      O        0.41200    0.35390    0.07440    1.000
    O25      O        0.03204    0.46724    0.76464    1.000
    O26      O        0.23668    0.48198    0.56032    1.000
    O27      O        0.92233    0.43403    0.50420    1.000
    O28      O        0.07462    0.83662    0.87046    1.000
    O29      O        0.14436    0.40166    0.43022    1.000
    O30      O        0.15721    0.93021    0.99380    1.000
    O31      O        0.84615    0.29895    0.48070    1.000
    O32      O        0.18927    0.68507    0.84504    1.000
    O33      O        0.91348    0.88238    0.94288    1.000
    O34      O        0.09061    0.43441    0.65038    1.000
    O35      O        0.90270    0.49880    0.67470    1.000
    O36      O        0.36964    0.39754    0.48904    1.000
    O37      O        0.02662    0.96852    0.90684    1.000
    O38      O        0.17155    0.33945    0.50888    1.000
    O39      O        0.78292    0.34132    0.38834    1.000
    O40      O        0.06400    0.67640    0.72948    1.000
    O41      O        0.28748    0.76238    0.79730    1.000
    O42      O        0.68352    0.38542    0.49032    1.000
    O43      O        0.89234    0.36004    0.65122    1.000
    O44      O        0.25802    0.61632    0.73376    1.000
    O45      O        0.23838    0.79008    0.01796    1.000
    O46      O        0.99160    0.76770    0.01360    1.000
    O47      O        0.13160    0.86270    0.10340    1.000
    O48      O        0.16240    0.72050    0.07440    1.000
    O49      O        0.76740    0.70260    0.23536    1.000
    O50      O        0.17636    0.92166    0.43968    1.000
    O51      O        0.91813    0.92983    0.49580    1.000
    O52      O        0.70416    0.96616    0.12954    1.000
    O53      O        0.21414    0.97144    0.56978    1.000
    O54      O        0.66341    0.93641    0.00620    1.000
    O55      O        0.86545    0.81825    0.51930    1.000
    O56      O        0.84423    0.84003    0.15496    1.000
    O57      O        0.47060    0.93950    0.05712    1.000
    O58      O        0.94023    0.78403    0.34962    1.000
    O59      O        0.72800    0.82410    0.32530    1.000
    O60      O        0.38060    0.90850    0.51096    1.000
    O61      O        0.61978    0.06168    0.09316    1.000
    O62      O        0.16267    0.83057    0.49112    1.000
    O63      O        0.89458    0.95298    0.61166    1.000
    O64      O        0.83452    0.94692    0.27052    1.000
    O65      O        0.99018    0.96508    0.20270    1.000
    O66      O        0.69320    0.89510    0.50968    1.000
    O67      O        0.74112    0.70882    0.34878    1.000
    O68      O        0.02426    0.88256    0.26624    1.000
    O69      O        0.72042    0.77212    0.98204    1.000
    O70      O        0.47800    0.75410    0.98640    1.000
    O71      O        0.52820    0.75930    0.89660    1.000
    O72      O        0.58800    0.64610    0.92560    1.000
    O73      O        0.96796    0.53276    0.23536    1.000
    O74      O        0.76332    0.51802    0.43968    1.000
    O75      O        0.07767    0.56597    0.49580    1.000
    O76      O        0.92538    0.16338    0.12954    1.000
    O77      O        0.85564    0.59834    0.56978    1.000
    O78      O        0.84279    0.06979    0.00620    1.000
    O79      O        0.15385    0.70105    0.51930    1.000
    O80      O        0.81073    0.31493    0.15496    1.000
    O81      O        0.08652    0.11762    0.05712    1.000
    O82      O        0.90939    0.56559    0.34962    1.000
    O83      O        0.09730    0.50120    0.32530    1.000
    O84      O        0.63036    0.60246    0.51096    1.000
    O85      O        0.97338    0.03148    0.09316    1.000
    O86      O        0.82845    0.66055    0.49112    1.000
    O87      O        0.21708    0.65868    0.61166    1.000
    O88      O        0.93600    0.32360    0.27052    1.000
    O89      O        0.71252    0.23762    0.20270    1.000
    O90      O        0.31648    0.61458    0.50968    1.000
    O91      O        0.10766    0.63996    0.34878    1.000
    O92      O        0.74198    0.38368    0.26624    1.000
    O93      O        0.76162    0.20992    0.98204    1.000
    O94      O        0.00840    0.23230    0.98640    1.000
    O95      O        0.86840    0.13730    0.89660    1.000
    O96      O        0.83760    0.27950    0.92560    1.000
    H1       H        0.41920    0.52340    0.41360    1.000
    H2       H        0.30880    0.44810    0.35420    1.000
    H3       H        0.42830    0.48170    0.33180    1.000
    H4       H        0.52530    0.31040    0.34080    1.000
    H5       H        0.49320    0.34880    0.28760    1.000
    H6       H        0.37370    0.31520    0.31000    1.000
    H7       H        0.57540    0.44490    0.40400    1.000
    H8       H        0.46450    0.41370    0.42480    1.000
    C1       C        0.40392    0.47302    0.37024    1.000
    C2       C        0.46778    0.34188    0.32656    1.000
    N1       N        0.48655    0.42065    0.38806    1.000
    H9       H        0.73620    0.03320    0.86020    1.000
    H10      H        0.60940    0.97240    0.79740    1.000
    H11      H        0.75760    0.95480    0.79740    1.000
    H12      H        0.76880    0.94200    0.90040    1.000
    H13      H        0.62400    0.82700    0.86020    1.000
    H14      H        0.68800    0.82500    0.79740    1.000
    H15      H        0.53980    0.84260    0.79740    1.000
    H16      H        0.63160    0.95840    0.90040    1.000
    C3       C        0.69801    0.97751    0.82782    1.000
    C4       C        0.62981    0.85031    0.82782    1.000
    N2       N        0.68554    0.93554    0.87108    1.000
    H17      H        0.83100    0.25940    0.74160    1.000
    H18      H        0.93710    0.33850    0.76880    1.000
    H19      H        0.84110    0.33320    0.81720    1.000
    H20      H        0.15390    0.32780    0.91200    1.000
    H21      H        0.04100    0.38040    0.92480    1.000
    H22      H        0.13710    0.38580    0.87660    1.000
    H23      H        0.95200    0.25360    0.84160    1.000
    H24      H        0.04100    0.25850    0.79680    1.000
    C5       C        0.89220    0.30390    0.78400    1.000
    C6       C        0.08920    0.35070    0.89020    1.000
    N3       N        0.99498    0.28688    0.82856    1.000
    H25      H        0.06550    0.44160    0.10280    1.000
    H26      H        0.18390    0.39280    0.09280    1.000
    H27      H        0.19200    0.46340    0.17000    1.000
    H28      H        0.10280    0.29830    0.19220    1.000
    H29      H        0.22450    0.37200    0.22940    1.000
    H30      H        0.21630    0.30130    0.15220    1.000
    H31      H        0.02840    0.38970    0.17120    1.000
    H32      H        0.02090    0.32450    0.10000    1.000
    C7       C        0.13150    0.42040    0.12600    1.000
    C8       C        0.16370    0.33260    0.18340    1.000
    N4       N        0.07950    0.36280    0.14180    1.000
    H33      H        0.69140    0.10300    0.26480    1.000
    H34      H        0.77680    0.18520    0.32840    1.000
    H35      H        0.80700    0.10510    0.32840    1.000
    H36      H        0.87750    0.07650    0.22700    1.000
    H37      H        0.07340    0.16180    0.26480    1.000
    H38      H        0.05160    0.14320    0.32840    1.000
    H39      H        0.02140    0.22330    0.32840    1.000
    H40      H        0.84950    0.15050    0.22700    1.000
    C9       C        0.78030    0.13050    0.29800    1.000
    C10      C        0.01770    0.16750    0.29800    1.000
    N5       N        0.87820    0.12820    0.25640    1.000
    H41      H        0.49440    0.89020    0.41360    1.000
    H42      H        0.54540    0.90610    0.35420    1.000
    H43      H        0.40350    0.85010    0.33180    1.000
    H44      H        0.31550    0.03040    0.34080    1.000
    H45      H        0.29440    0.93880    0.28760    1.000
    H46      H        0.43630    0.99480    0.31000    1.000
    H47      H        0.32860    0.95910    0.40400    1.000
    H48      H        0.46030    0.01110    0.42480    1.000
    C11      C        0.46632    0.89722    0.37024    1.000
    C12      C        0.35878    0.98468    0.32656    1.000
    N6       N        0.40151    0.96741    0.38806    1.000
    H49      H        0.41060    0.48220    0.74160    1.000
    H50      H        0.33170    0.43030    0.76880    1.000
    H51      H        0.47610    0.48400    0.81720    1.000
    H52      H        0.25810    0.58420    0.91200    1.000
    H53      H        0.38380    0.54440    0.92480    1.000
    H54      H        0.23950    0.49080    0.87660    1.000
    H55      H        0.38960    0.58800    0.84160    1.000
    H56      H        0.25580    0.53830    0.79680    1.000
    C13      C        0.39180    0.48010    0.78400    1.000
    C14      C        0.30100    0.53950    0.89020    1.000
    N7       N        0.33358    0.54168    0.82856    1.000
    H57      H        0.53730    0.66120    0.10280    1.000
    H58      H        0.40890    0.70000    0.09280    1.000
    H59      H        0.47800    0.70660    0.17000    1.000
    H60      H        0.58940    0.89390    0.19220    1.000
    H61      H        0.50490    0.85740    0.22940    1.000
    H62      H        0.43590    0.85090    0.15220    1.000
    H63      H        0.64280    0.78150    0.17120    1.000
    H64      H        0.57910    0.77550    0.10000    1.000
    C15      C        0.49450    0.70560    0.12600    1.000
    C16      C        0.51970    0.85080    0.18340    1.000
    N8       N        0.56230    0.77900    0.14180    1.000
    H65      H        0.58080    0.47660    0.58640    1.000
    H66      H        0.69120    0.55190    0.64580    1.000
    H67      H        0.57170    0.51830    0.66820    1.000
    H68      H        0.47470    0.68960    0.65920    1.000
    H69      H        0.50680    0.65120    0.71240    1.000
    H70      H        0.62630    0.68480    0.69000    1.000
    H71      H        0.42460    0.55510    0.59600    1.000
    H72      H        0.53550    0.58630    0.57520    1.000
    C17      C        0.59608    0.52698    0.62976    1.000
    C18      C        0.53222    0.65812    0.67344    1.000
    N9       N        0.51345    0.57935    0.61194    1.000
    H73      H        0.26380    0.96680    0.13980    1.000
    H74      H        0.39060    0.02760    0.20260    1.000
    H75      H        0.24240    0.04520    0.20260    1.000
    H76      H        0.23120    0.05800    0.09960    1.000
    H77      H        0.37600    0.17300    0.13980    1.000
    H78      H        0.31200    0.17500    0.20260    1.000
    H79      H        0.46020    0.15740    0.20260    1.000
    H80      H        0.36840    0.04160    0.09960    1.000
    C19      C        0.30199    0.02249    0.17218    1.000
    C20      C        0.37019    0.14969    0.17218    1.000
    N10      N        0.31446    0.06446    0.12892    1.000
    H81      H        0.16900    0.74060    0.25840    1.000
    H82      H        0.06290    0.66150    0.23120    1.000
    H83      H        0.15890    0.66680    0.18280    1.000
    H84      H        0.84610    0.67220    0.08800    1.000
    H85      H        0.95900    0.61960    0.07520    1.000
    H86      H        0.86290    0.61420    0.12340    1.000
    H87      H        0.04800    0.74640    0.15840    1.000
    H88      H        0.95900    0.74150    0.20320    1.000
    C21      C        0.10780    0.69610    0.21600    1.000
    C22      C        0.91080    0.64930    0.10980    1.000
    N11      N        0.00502    0.71312    0.17144    1.000
    H89      H        0.93450    0.55840    0.89720    1.000
    H90      H        0.81610    0.60720    0.90720    1.000
    H91      H        0.80800    0.53660    0.83000    1.000
    H92      H        0.89720    0.70170    0.80780    1.000
    H93      H        0.77550    0.62800    0.77060    1.000
    H94      H        0.78370    0.69870    0.84780    1.000
    H95      H        0.97160    0.61030    0.82880    1.000
    H96      H        0.97910    0.67550    0.90000    1.000
    C23      C        0.86850    0.57960    0.87400    1.000
    C24      C        0.83630    0.66740    0.81660    1.000
    N12      N        0.92050    0.63720    0.85820    1.000
    H97      H        0.30860    0.89700    0.73520    1.000
    H98      H        0.22320    0.81480    0.67160    1.000
    H99      H        0.19300    0.89490    0.67160    1.000
    H100     H        0.12250    0.92350    0.77300    1.000
    H101     H        0.92660    0.83820    0.73520    1.000
    H102     H        0.94840    0.85680    0.67160    1.000
    H103     H        0.97860    0.77670    0.67160    1.000
    H104     H        0.15050    0.84950    0.77300    1.000
    C25      C        0.21970    0.86950    0.70200    1.000
    C26      C        0.98230    0.83250    0.70200    1.000
    N13      N        0.12180    0.87180    0.74360    1.000
    H105     H        0.50560    0.10980    0.58640    1.000
    H106     H        0.45460    0.09390    0.64580    1.000
    H107     H        0.59650    0.14990    0.66820    1.000
    H108     H        0.68450    0.96960    0.65920    1.000
    H109     H        0.70560    0.06120    0.71240    1.000
    H110     H        0.56370    0.00520    0.69000    1.000
    H111     H        0.67140    0.04090    0.59600    1.000
    H112     H        0.53970    0.98890    0.57520    1.000
    C27      C        0.53368    0.10278    0.62976    1.000
    C28      C        0.64122    0.01532    0.67344    1.000
    N14      N        0.59849    0.03259    0.61194    1.000
    H113     H        0.58940    0.51780    0.25840    1.000
    H114     H        0.66830    0.56970    0.23120    1.000
    H115     H        0.52390    0.51600    0.18280    1.000
    H116     H        0.74190    0.41580    0.08800    1.000
    H117     H        0.61620    0.45560    0.07520    1.000
    H118     H        0.76050    0.50920    0.12340    1.000
    H119     H        0.61040    0.41200    0.15840    1.000
    H120     H        0.74420    0.46170    0.20320    1.000
    C29      C        0.60820    0.51990    0.21600    1.000
    C30      C        0.69900    0.46050    0.10980    1.000
    N15      N        0.66642    0.45832    0.17144    1.000
    H121     H        0.46270    0.33880    0.89720    1.000
    H122     H        0.59110    0.30000    0.90720    1.000
    H123     H        0.52200    0.29340    0.83000    1.000
    H124     H        0.41060    0.10610    0.80780    1.000
    H125     H        0.49510    0.14260    0.77060    1.000
    H126     H        0.56410    0.14910    0.84780    1.000
    H127     H        0.35720    0.21850    0.82880    1.000
    H128     H        0.42090    0.22450    0.90000    1.000
    C31      C        0.50550    0.29440    0.87400    1.000
    C32      C        0.48030    0.14920    0.81660    1.000
    N16      N        0.43770    0.22100    0.85820    1.000
