# CIF file generated by openbabel 3.1.0, see https://openbabel.org
data_I
_chemical_name_common 'image0'
_cell_length_a 8.438
_cell_length_b 17.081
_cell_length_c 9.585
_cell_angle_alpha 90
_cell_angle_beta 111.72
_cell_angle_gamma 90
_space_group_name_H-M_alt 'P 1'
_space_group_name_Hall 'P 1'
loop_
    _symmetry_equiv_pos_as_xyz
    x,y,z
loop_
    _atom_site_label
    _atom_site_type_symbol
    _atom_site_fract_x
    _atom_site_fract_y
    _atom_site_fract_z
    _atom_site_occupancy
    Er1      Er       0.66309    0.75800    0.97823    1.000
    O1       O        0.41490    0.73260    0.77190    1.000
    O2       O        0.48150    0.69220    0.57840    1.000
    O3       O        0.84230    0.72780    0.35940    1.000
    O4       O        0.90580    0.70030    0.15930    1.000
    O5       O        0.68880    0.62250    0.90480    1.000
    O6       O        0.54170    0.64630    0.04910    1.000
    C1       C        0.37750    0.71340    0.63600    1.000
    C2       C        0.19100    0.71630    0.53940    1.000
    H1       H        0.11470    0.73260    0.58290    1.000
    C3       C        0.12980    0.69680    0.39590    1.000
    H2       H        0.20310    0.67530    0.35370    1.000
    C4       C        0.94630    0.70820    0.29930    1.000
    C5       C        0.59770    0.59860    0.97490    1.000
    C6       C        0.55290    0.51440    0.96940    1.000
    H3       H        0.60100    0.48010    0.92080    1.000
    Er2      Er       0.33691    0.25800    0.52177    1.000
    O7       O        0.58510    0.23260    0.72810    1.000
    O8       O        0.51850    0.19220    0.92160    1.000
    O9       O        0.15770    0.22780    0.14060    1.000
    O10      O        0.09420    0.20030    0.34070    1.000
    O11      O        0.31120    0.12250    0.59520    1.000
    O12      O        0.45830    0.14630    0.45090    1.000
    C7       C        0.62250    0.21340    0.86400    1.000
    C8       C        0.80900    0.21630    0.96060    1.000
    H4       H        0.88530    0.23260    0.91710    1.000
    C9       C        0.87020    0.19680    0.10410    1.000
    H5       H        0.79690    0.17530    0.14630    1.000
    C10      C        0.05370    0.20820    0.20070    1.000
    C11      C        0.40230    0.09860    0.52510    1.000
    C12      C        0.44710    0.01440    0.53060    1.000
    H6       H        0.39900    0.98010    0.57920    1.000
    Er3      Er       0.33691    0.24200    0.02177    1.000
    O13      O        0.58510    0.26740    0.22810    1.000
    O14      O        0.51850    0.30780    0.42160    1.000
    O15      O        0.15770    0.27220    0.64060    1.000
    O16      O        0.09420    0.29970    0.84070    1.000
    O17      O        0.31120    0.37750    0.09520    1.000
    O18      O        0.45830    0.35370    0.95090    1.000
    C13      C        0.62250    0.28660    0.36400    1.000
    C14      C        0.80900    0.28370    0.46060    1.000
    H7       H        0.88530    0.26740    0.41710    1.000
    C15      C        0.87020    0.30320    0.60410    1.000
    H8       H        0.79690    0.32470    0.64630    1.000
    C16      C        0.05370    0.29180    0.70070    1.000
    C17      C        0.40230    0.40140    0.02510    1.000
    C18      C        0.44710    0.48560    0.03060    1.000
    H9       H        0.39900    0.51990    0.07920    1.000
    Er4      Er       0.66309    0.74200    0.47823    1.000
    O19      O        0.41490    0.76740    0.27190    1.000
    O20      O        0.48150    0.80780    0.07840    1.000
    O21      O        0.84230    0.77220    0.85940    1.000
    O22      O        0.90580    0.79970    0.65930    1.000
    O23      O        0.68880    0.87750    0.40480    1.000
    O24      O        0.54170    0.85370    0.54910    1.000
    C19      C        0.37750    0.78660    0.13600    1.000
    C20      C        0.19100    0.78370    0.03940    1.000
    H10      H        0.11470    0.76740    0.08290    1.000
    C21      C        0.12980    0.80320    0.89590    1.000
    H11      H        0.20310    0.82470    0.85370    1.000
    C22      C        0.94630    0.79180    0.79930    1.000
    C23      C        0.59770    0.90140    0.47490    1.000
    C24      C        0.55290    0.98560    0.46940    1.000
    H12      H        0.60100    0.01990    0.42080    1.000
