# CIF file generated by openbabel 3.1.0, see https://openbabel.org
data_I
_chemical_name_common 'image0'
_cell_length_a 13.5104
_cell_length_b 14.1107
_cell_length_c 8.8
_cell_angle_alpha 90
_cell_angle_beta 114.617
_cell_angle_gamma 90
_space_group_name_H-M_alt 'P 1'
_space_group_name_Hall 'P 1'
loop_
    _symmetry_equiv_pos_as_xyz
    x,y,z
loop_
    _atom_site_label
    _atom_site_type_symbol
    _atom_site_fract_x
    _atom_site_fract_y
    _atom_site_fract_z
    _atom_site_occupancy
    O1       O        0.09186    0.57597    0.11542    1.000
    O2       O        0.10515    0.52447    0.88540    1.000
    O3       O        0.19328    0.62481    0.73495    1.000
    H1       H        0.15100    0.58450    0.73980    1.000
    C1       C        0.12247    0.58460    0.00145    1.000
    C2       C        0.18796    0.66990    0.99866    1.000
    C3       C        0.21846    0.73508    0.12985    1.000
    H2       H        0.19710    0.72530    0.21640    1.000
    C4       C        0.21985    0.68569    0.86720    1.000
    O4       O        0.59186    0.07597    0.11542    1.000
    O5       O        0.60515    0.02447    0.88540    1.000
    O6       O        0.69328    0.12481    0.73495    1.000
    H3       H        0.65100    0.08450    0.73980    1.000
    C5       C        0.62247    0.08460    0.00145    1.000
    C6       C        0.68796    0.16990    0.99866    1.000
    C7       C        0.71846    0.23508    0.12985    1.000
    H4       H        0.69710    0.22530    0.21640    1.000
    C8       C        0.71985    0.18569    0.86720    1.000
    O7       O        0.90814    0.57597    0.38458    1.000
    O8       O        0.89485    0.52447    0.61460    1.000
    O9       O        0.80672    0.62481    0.76505    1.000
    H5       H        0.84900    0.58450    0.76020    1.000
    C9       C        0.87753    0.58460    0.49855    1.000
    C10      C        0.81204    0.66990    0.50134    1.000
    C11      C        0.78154    0.73508    0.37015    1.000
    H6       H        0.80290    0.72530    0.28360    1.000
    C12      C        0.78015    0.68569    0.63280    1.000
    O10      O        0.40814    0.07597    0.38458    1.000
    O11      O        0.39485    0.02447    0.61460    1.000
    O12      O        0.30672    0.12481    0.76505    1.000
    H7       H        0.34900    0.08450    0.76020    1.000
    C13      C        0.37753    0.08460    0.49855    1.000
    C14      C        0.31204    0.16990    0.50134    1.000
    C15      C        0.28154    0.23508    0.37015    1.000
    H8       H        0.30290    0.22530    0.28360    1.000
    C16      C        0.28015    0.18569    0.63280    1.000
    O13      O        0.90814    0.42403    0.88458    1.000
    O14      O        0.89485    0.47553    0.11460    1.000
    O15      O        0.80672    0.37519    0.26505    1.000
    H9       H        0.84900    0.41550    0.26020    1.000
    C17      C        0.87753    0.41540    0.99855    1.000
    C18      C        0.81204    0.33010    0.00134    1.000
    C19      C        0.78154    0.26492    0.87015    1.000
    H10      H        0.80290    0.27470    0.78360    1.000
    C20      C        0.78015    0.31431    0.13280    1.000
    O16      O        0.40814    0.92403    0.88458    1.000
    O17      O        0.39485    0.97553    0.11460    1.000
    O18      O        0.30672    0.87519    0.26505    1.000
    H11      H        0.34900    0.91550    0.26020    1.000
    C21      C        0.37753    0.91540    0.99855    1.000
    C22      C        0.31204    0.83010    0.00134    1.000
    C23      C        0.28154    0.76492    0.87015    1.000
    H12      H        0.30290    0.77470    0.78360    1.000
    C24      C        0.28015    0.81431    0.13280    1.000
    O19      O        0.09186    0.42403    0.61542    1.000
    O20      O        0.10515    0.47553    0.38540    1.000
    O21      O        0.19328    0.37519    0.23495    1.000
    H13      H        0.15100    0.41550    0.23980    1.000
    C25      C        0.12247    0.41540    0.50145    1.000
    C26      C        0.18796    0.33010    0.49866    1.000
    C27      C        0.21846    0.26492    0.62985    1.000
    H14      H        0.19710    0.27470    0.71640    1.000
    C28      C        0.21985    0.31431    0.36720    1.000
    O22      O        0.59186    0.92403    0.61542    1.000
    O23      O        0.60515    0.97553    0.38540    1.000
    O24      O        0.69328    0.87519    0.23495    1.000
    H15      H        0.65100    0.91550    0.23980    1.000
    C29      C        0.62247    0.91540    0.50145    1.000
    C30      C        0.68796    0.83010    0.49866    1.000
    C31      C        0.71846    0.76492    0.62985    1.000
    H16      H        0.69710    0.77470    0.71640    1.000
    C32      C        0.71985    0.81431    0.36720    1.000
    Mg1      Mg       0.00000    0.57867    0.25000    1.000
    Mg2      Mg       0.50000    0.07867    0.25000    1.000
    Mg3      Mg       0.00000    0.42133    0.75000    1.000
    Mg4      Mg       0.50000    0.92133    0.75000    1.000
