# CIF file generated by openbabel 3.1.0, see https://openbabel.org
data_I
_chemical_name_common 'image0'
_cell_length_a 9.7821
_cell_length_b 19.916
_cell_length_c 16.1047
_cell_angle_alpha 90
_cell_angle_beta 93.581
_cell_angle_gamma 90
_space_group_name_H-M_alt 'P 1'
_space_group_name_Hall 'P 1'
loop_
    _symmetry_equiv_pos_as_xyz
    x,y,z
loop_
    _atom_site_label
    _atom_site_type_symbol
    _atom_site_fract_x
    _atom_site_fract_y
    _atom_site_fract_z
    _atom_site_occupancy
    N1       N        0.44590    0.08970    0.41550    1.000
    N2       N        0.94740    0.41250    0.91430    1.000
    O1       O        0.14520    0.43060    0.06220    1.000
    O2       O        0.35440    0.47450    0.09130    1.000
    O3       O        0.63530    0.06810    0.56780    1.000
    O4       O        0.84990    0.03010    0.58740    1.000
    C1       C        0.26280    0.43000    0.09690    1.000
    C2       C        0.29900    0.37050    0.15140    1.000
    C3       C        0.25280    0.30630    0.12900    1.000
    H1       H        0.19740    0.30030    0.07890    1.000
    C4       C        0.28630    0.25160    0.17820    1.000
    H2       H        0.25900    0.20800    0.15980    1.000
    C5       C        0.35980    0.25910    0.25460    1.000
    C6       C        0.40420    0.32280    0.27700    1.000
    H3       H        0.45400    0.32930    0.32890    1.000
    C7       C        0.37780    0.37730    0.22540    1.000
    H4       H        0.41420    0.42000    0.24100    1.000
    C8       C        0.42330    0.08220    0.33290    1.000
    H5       H        0.42640    0.03820    0.31040    1.000
    C9       C        0.39580    0.13510    0.27920    1.000
    H6       H        0.38180    0.12690    0.22120    1.000
    C10      C        0.38830    0.20050    0.30970    1.000
    C11      C        0.41240    0.20760    0.39620    1.000
    H7       H        0.40890    0.25080    0.42100    1.000
    C12      C        0.44110    0.15220    0.44520    1.000
    H8       H        0.45850    0.15870    0.50330    1.000
    C13      C        0.75750    0.07200    0.59610    1.000
    C14      C        0.79270    0.13390    0.64830    1.000
    C15      C        0.69440    0.18220    0.66070    1.000
    H9       H        0.60520    0.17770    0.63440    1.000
    C16      C        0.72530    0.23750    0.71170    1.000
    H10      H        0.65640    0.27000    0.72000    1.000
    C17      C        0.85500    0.24590    0.75030    1.000
    C18      C        0.95530    0.19750    0.73380    1.000
    H11      H        0.04590    0.20250    0.75790    1.000
    C19      C        0.92390    0.14360    0.68350    1.000
    H12      H        0.99350    0.11220    0.67260    1.000
    C20      C        0.81980    0.39220    0.89550    1.000
    H13      H        0.74750    0.41580    0.91920    1.000
    C21      C        0.78610    0.33900    0.84360    1.000
    H14      H        0.69290    0.32640    0.83330    1.000
    C22      C        0.88730    0.30390    0.80680    1.000
    C23      C        0.02110    0.32500    0.82680    1.000
    H15      H        0.09570    0.30250    0.80410    1.000
    C24      C        0.04460    0.37830    0.87920    1.000
    H16      H        0.13680    0.39170    0.89130    1.000
    N3       N        0.55410    0.58970    0.08450    1.000
    N4       N        0.05260    0.91250    0.58570    1.000
    O5       O        0.85480    0.93060    0.43780    1.000
    O6       O        0.64560    0.97450    0.40870    1.000
    O7       O        0.36470    0.56810    0.93220    1.000
    O8       O        0.15010    0.53010    0.91260    1.000
    C25      C        0.73720    0.93000    0.40310    1.000
    C26      C        0.70100    0.87050    0.34860    1.000
    C27      C        0.74720    0.80630    0.37100    1.000
    H17      H        0.80260    0.80030    0.42110    1.000
    C28      C        0.71370    0.75160    0.32180    1.000
    H18      H        0.74100    0.70800    0.34020    1.000
    C29      C        0.64020    0.75910    0.24540    1.000
    C30      C        0.59580    0.82280    0.22300    1.000
    H19      H        0.54600    0.82930    0.17110    1.000
    C31      C        0.62220    0.87730    0.27460    1.000
    H20      H        0.58580    0.92000    0.25900    1.000
    C32      C        0.57670    0.58220    0.16710    1.000
    H21      H        0.57360    0.53820    0.18960    1.000
    C33      C        0.60420    0.63510    0.22080    1.000
    H22      H        0.61820    0.62690    0.27880    1.000
    C34      C        0.61170    0.70050    0.19030    1.000
    C35      C        0.58760    0.70760    0.10380    1.000
    H23      H        0.59110    0.75080    0.07900    1.000
    C36      C        0.55890    0.65220    0.05480    1.000
    H24      H        0.54150    0.65870    0.99670    1.000
    C37      C        0.24250    0.57200    0.90390    1.000
    C38      C        0.20730    0.63390    0.85170    1.000
    C39      C        0.30560    0.68220    0.83930    1.000
    H25      H        0.39480    0.67770    0.86560    1.000
    C40      C        0.27470    0.73750    0.78830    1.000
    H26      H        0.34360    0.77000    0.78000    1.000
    C41      C        0.14500    0.74590    0.74970    1.000
    C42      C        0.04470    0.69750    0.76620    1.000
    H27      H        0.95410    0.70250    0.74210    1.000
    C43      C        0.07610    0.64360    0.81650    1.000
    H28      H        0.00650    0.61220    0.82740    1.000
    C44      C        0.18020    0.89220    0.60450    1.000
    H29      H        0.25250    0.91580    0.58080    1.000
    C45      C        0.21390    0.83900    0.65640    1.000
    H30      H        0.30710    0.82640    0.66670    1.000
    C46      C        0.11270    0.80390    0.69320    1.000
    C47      C        0.97890    0.82500    0.67320    1.000
    H31      H        0.90430    0.80250    0.69590    1.000
    C48      C        0.95540    0.87830    0.62080    1.000
    H32      H        0.86320    0.89170    0.60870    1.000
    N5       N        0.55410    0.91030    0.58450    1.000
    N6       N        0.05260    0.58750    0.08570    1.000
    O9       O        0.85480    0.56940    0.93780    1.000
    O10      O        0.64560    0.52550    0.90870    1.000
    O11      O        0.36470    0.93190    0.43220    1.000
    O12      O        0.15010    0.96990    0.41260    1.000
    C49      C        0.73720    0.57000    0.90310    1.000
    C50      C        0.70100    0.62950    0.84860    1.000
    C51      C        0.74720    0.69370    0.87100    1.000
    H33      H        0.80260    0.69970    0.92110    1.000
    C52      C        0.71370    0.74840    0.82180    1.000
    H34      H        0.74100    0.79200    0.84020    1.000
    C53      C        0.64020    0.74090    0.74540    1.000
    C54      C        0.59580    0.67720    0.72300    1.000
    H35      H        0.54600    0.67070    0.67110    1.000
    C55      C        0.62220    0.62270    0.77460    1.000
    H36      H        0.58580    0.58000    0.75900    1.000
    C56      C        0.57670    0.91780    0.66710    1.000
    H37      H        0.57360    0.96180    0.68960    1.000
    C57      C        0.60420    0.86490    0.72080    1.000
    H38      H        0.61820    0.87310    0.77880    1.000
    C58      C        0.61170    0.79950    0.69030    1.000
    C59      C        0.58760    0.79240    0.60380    1.000
    H39      H        0.59110    0.74920    0.57900    1.000
    C60      C        0.55890    0.84780    0.55480    1.000
    H40      H        0.54150    0.84130    0.49670    1.000
    C61      C        0.24250    0.92800    0.40390    1.000
    C62      C        0.20730    0.86610    0.35170    1.000
    C63      C        0.30560    0.81780    0.33930    1.000
    H41      H        0.39480    0.82230    0.36560    1.000
    C64      C        0.27470    0.76250    0.28830    1.000
    H42      H        0.34360    0.73000    0.28000    1.000
    C65      C        0.14500    0.75410    0.24970    1.000
    C66      C        0.04470    0.80250    0.26620    1.000
    H43      H        0.95410    0.79750    0.24210    1.000
    C67      C        0.07610    0.85640    0.31650    1.000
    H44      H        0.00650    0.88780    0.32740    1.000
    C68      C        0.18020    0.60780    0.10450    1.000
    H45      H        0.25250    0.58420    0.08080    1.000
    C69      C        0.21390    0.66100    0.15640    1.000
    H46      H        0.30710    0.67360    0.16670    1.000
    C70      C        0.11270    0.69610    0.19320    1.000
    C71      C        0.97890    0.67500    0.17320    1.000
    H47      H        0.90430    0.69750    0.19590    1.000
    C72      C        0.95540    0.62170    0.12080    1.000
    H48      H        0.86320    0.60830    0.10870    1.000
    N7       N        0.44590    0.41030    0.91550    1.000
    N8       N        0.94740    0.08750    0.41430    1.000
    O13      O        0.14520    0.06940    0.56220    1.000
    O14      O        0.35440    0.02550    0.59130    1.000
    O15      O        0.63530    0.43190    0.06780    1.000
    O16      O        0.84990    0.46990    0.08740    1.000
    C73      C        0.26280    0.07000    0.59690    1.000
    C74      C        0.29900    0.12950    0.65140    1.000
    C75      C        0.25280    0.19370    0.62900    1.000
    H49      H        0.19740    0.19970    0.57890    1.000
    C76      C        0.28630    0.24840    0.67820    1.000
    H50      H        0.25900    0.29200    0.65980    1.000
    C77      C        0.35980    0.24090    0.75460    1.000
    C78      C        0.40420    0.17720    0.77700    1.000
    H51      H        0.45400    0.17070    0.82890    1.000
    C79      C        0.37780    0.12270    0.72540    1.000
    H52      H        0.41420    0.08000    0.74100    1.000
    C80      C        0.42330    0.41780    0.83290    1.000
    H53      H        0.42640    0.46180    0.81040    1.000
    C81      C        0.39580    0.36490    0.77920    1.000
    H54      H        0.38180    0.37310    0.72120    1.000
    C82      C        0.38830    0.29950    0.80970    1.000
    C83      C        0.41240    0.29240    0.89620    1.000
    H55      H        0.40890    0.24920    0.92100    1.000
    C84      C        0.44110    0.34780    0.94520    1.000
    H56      H        0.45850    0.34130    0.00330    1.000
    C85      C        0.75750    0.42800    0.09610    1.000
    C86      C        0.79270    0.36610    0.14830    1.000
    C87      C        0.69440    0.31780    0.16070    1.000
    H57      H        0.60520    0.32230    0.13440    1.000
    C88      C        0.72530    0.26250    0.21170    1.000
    H58      H        0.65640    0.23000    0.22000    1.000
    C89      C        0.85500    0.25410    0.25030    1.000
    C90      C        0.95530    0.30250    0.23380    1.000
    H59      H        0.04590    0.29750    0.25790    1.000
    C91      C        0.92390    0.35640    0.18350    1.000
    H60      H        0.99350    0.38780    0.17260    1.000
    C92      C        0.81980    0.10780    0.39550    1.000
    H61      H        0.74750    0.08420    0.41920    1.000
    C93      C        0.78610    0.16100    0.34360    1.000
    H62      H        0.69290    0.17360    0.33330    1.000
    C94      C        0.88730    0.19610    0.30680    1.000
    C95      C        0.02110    0.17500    0.32680    1.000
    H63      H        0.09570    0.19750    0.30410    1.000
    C96      C        0.04460    0.12170    0.37920    1.000
    H64      H        0.13680    0.10830    0.39130    1.000
    Mn1      Mn       0.50000    0.00000    0.50000    1.000
    Mn2      Mn       0.50000    0.50000    0.00000    1.000
    Mn3      Mn       0.00000    0.50000    0.00000    1.000
    Mn4      Mn       0.00000    0.00000    0.50000    1.000
