# CIF file generated by openbabel 3.1.0, see https://openbabel.org
data_I
_chemical_name_common 'LEGGEK_clean'
_cell_length_a 7.797
_cell_length_b 10.047
_cell_length_c 13.577
_cell_angle_alpha 110.18
_cell_angle_beta 105.46
_cell_angle_gamma 93.9
_space_group_name_H-M_alt 'P 1'
_space_group_name_Hall 'P 1'
loop_
    _symmetry_equiv_pos_as_xyz
    x,y,z
loop_
    _atom_site_label
    _atom_site_type_symbol
    _atom_site_fract_x
    _atom_site_fract_y
    _atom_site_fract_z
    _atom_site_occupancy
    Zn1      Zn       0.36918    0.12226    0.74478    1.000
    Zn2      Zn       0.63082    0.87774    0.25522    1.000
    Zn3      Zn       0.00000    0.50000    0.50000    1.000
    Zn4      Zn       0.50000    0.50000    0.50000    1.000
    H1       H        0.08500    0.84250    0.63220    1.000
    H2       H        0.59020    0.85780    0.63670    1.000
    H3       H        0.04010    0.26670    0.62560    1.000
    H4       H        0.53900    0.27060    0.61970    1.000
    H5       H        0.86230    0.05580    0.84720    1.000
    H6       H        0.31300    0.00290    0.05320    1.000
    H7       H        0.96780    0.29080    0.84530    1.000
    H8       H        0.74500    0.57110    0.05090    1.000
    H9       H        0.91500    0.15750    0.36780    1.000
    H10      H        0.40980    0.14220    0.36330    1.000
    H11      H        0.95990    0.73330    0.37440    1.000
    H12      H        0.46100    0.72940    0.38030    1.000
    H13      H        0.13770    0.94420    0.15280    1.000
    H14      H        0.68700    0.99710    0.94680    1.000
    H15      H        0.03220    0.70920    0.15470    1.000
    H16      H        0.25500    0.42890    0.94910    1.000
    C1       C        0.19490    0.81520    0.62130    1.000
    C2       C        0.46650    0.82350    0.62390    1.000
    C3       C        0.15150    0.28820    0.61350    1.000
    C4       C        0.41950    0.29020    0.61030    1.000
    C5       C        0.21770    0.07550    0.87790    1.000
    C6       C        0.10390    0.03610    0.94060    1.000
    C7       C        0.91820    0.03340    0.90940    1.000
    C8       C        0.18640    0.00200    0.03170    1.000
    C9       C        0.98120    0.37560    0.90800    1.000
    C10      C        0.84810    0.54240    0.03030    1.000
    C11      C        0.82850    0.41730    0.93800    1.000
    C12      C        0.64330    0.32850    0.87240    1.000
    C13      C        0.80510    0.18480    0.37870    1.000
    C14      C        0.53350    0.17650    0.37610    1.000
    C15      C        0.84850    0.71180    0.38650    1.000
    C16      C        0.58050    0.70980    0.38970    1.000
    C17      C        0.78230    0.92450    0.12210    1.000
    C18      C        0.89610    0.96390    0.05940    1.000
    C19      C        0.08180    0.96660    0.09060    1.000
    C20      C        0.81360    0.99800    0.96830    1.000
    C21      C        0.01880    0.62440    0.09200    1.000
    C22      C        0.15190    0.45760    0.96970    1.000
    C23      C        0.17150    0.58270    0.06200    1.000
    C24      C        0.35670    0.67150    0.12760    1.000
    N1       N        0.21140    0.68150    0.56970    1.000
    N2       N        0.38930    0.68590    0.57140    1.000
    N3       N        0.35110    0.90960    0.65710    1.000
    N4       N        0.17930    0.37810    0.56500    1.000
    N5       N        0.35540    0.37890    0.56300    1.000
    N6       N        0.29780    0.23050    0.64380    1.000
    N7       N        0.78860    0.31850    0.43030    1.000
    N8       N        0.61070    0.31410    0.42860    1.000
    N9       N        0.64890    0.09040    0.34290    1.000
    N10      N        0.82070    0.62190    0.43500    1.000
    N11      N        0.64460    0.62110    0.43700    1.000
    N12      N        0.70220    0.76950    0.35620    1.000
    O1       O        0.14070    0.09360    0.79020    1.000
    O2       O        0.38520    0.09290    0.91300    1.000
    O3       O        0.63580    0.20330    0.80090    1.000
    O4       O        0.50680    0.38020    0.88740    1.000
    O5       O        0.85930    0.90640    0.20980    1.000
    O6       O        0.61480    0.90710    0.08700    1.000
    O7       O        0.36420    0.79670    0.19910    1.000
    O8       O        0.49320    0.61980    0.11260    1.000
