# CIF file generated by openbabel 3.1.0, see https://openbabel.org
data_I
_chemical_name_common 'JOVXEZ_clean'
_cell_length_a 11.0667
_cell_length_b 11.0667
_cell_length_c 14.9142
_cell_angle_alpha 80.6532
_cell_angle_beta 72.1071
_cell_angle_gamma 111.535
_space_group_name_H-M_alt 'P 1'
_space_group_name_Hall 'P 1'
loop_
    _symmetry_equiv_pos_as_xyz
    x,y,z
loop_
    _atom_site_label
    _atom_site_type_symbol
    _atom_site_fract_x
    _atom_site_fract_y
    _atom_site_fract_z
    _atom_site_occupancy
    Cu1      Cu       0.18315    0.03552    0.32825    1.000
    Cu2      Cu       0.13623    0.48860    0.82825    1.000
    Cu3      Cu       0.86377    0.51140    0.17175    1.000
    Cu4      Cu       0.81685    0.96448    0.67175    1.000
    H1       H        0.99060    0.65790    0.57610    1.000
    H2       H        0.33530    0.17440    0.90030    1.000
    H3       H        0.42530    0.76440    0.40030    1.000
    H4       H        0.86510    0.65280    0.32570    1.000
    H5       H        0.38420    0.60840    0.95220    1.000
    H6       H        0.43310    0.81760    0.12850    1.000
    H7       H        0.47850    0.19080    0.17430    1.000
    H8       H        0.73400    0.56670    0.92390    1.000
    H9       H        0.56690    0.18240    0.87150    1.000
    H10      H        0.61580    0.39160    0.04780    1.000
    H11      H        0.82290    0.73630    0.07640    1.000
    H12      H        0.14460    0.24310    0.20930    1.000
    H13      H        0.52150    0.80920    0.82570    1.000
    H14      H        0.57470    0.23560    0.59970    1.000
    H15      H        0.29850    0.93110    0.16340    1.000
    H16      H        0.17710    0.26370    0.92360    1.000
    H17      H        0.00940    0.34210    0.42390    1.000
    H18      H        0.40550    0.53810    0.66340    1.000
    H19      H        0.55390    0.43840    0.62850    1.000
    H20      H        0.13490    0.34720    0.67430    1.000
    H21      H        0.59450    0.46190    0.33660    1.000
    H22      H        0.04760    0.64610    0.70930    1.000
    H23      H        0.31270    0.89930    0.42360    1.000
    H24      H        0.44610    0.56160    0.37150    1.000
    H25      H        0.66470    0.82560    0.09970    1.000
    H26      H        0.68730    0.10070    0.57640    1.000
    H27      H        0.85540    0.75690    0.79070    1.000
    H28      H        0.06060    0.33640    0.54780    1.000
    H29      H        0.95240    0.35390    0.29070    1.000
    H30      H        0.93940    0.66360    0.45220    1.000
    H31      H        0.70150    0.06890    0.83660    1.000
    H32      H        0.26600    0.43330    0.07610    1.000
    C1       C        0.56480    0.75740    0.84400    1.000
    C2       C        0.59480    0.19870    0.65070    1.000
    C3       C        0.24110    0.27180    0.17490    1.000
    C4       C        0.51850    0.36200    0.07730    1.000
    C5       C        0.33460    0.88050    0.36370    1.000
    C6       C        0.93930    0.59580    0.42270    1.000
    C7       C        0.68630    0.61290    0.90460    1.000
    C8       C        0.65060    0.75450    0.15070    1.000
    C9       C        0.75890    0.72820    0.82510    1.000
    C10      C        0.25580    0.30170    0.86370    1.000
    C11      C        0.31370    0.38710    0.09540    1.000
    C12      C        0.66540    0.11950    0.63630    1.000
    C13      C        0.38750    0.46040    0.71050    1.000
    C14      C        0.10140    0.40880    0.65600    1.000
    C15      C        0.95490    0.52400    0.97770    1.000
    C16      C        0.59340    0.16990    0.80950    1.000
    C17      C        0.34940    0.24550    0.84930    1.000
    C18      C        0.89860    0.59120    0.34400    1.000
    C19      C        0.55380    0.22410    0.73970    1.000
    C20      C        0.44620    0.77590    0.26030    1.000
    C21      C        0.48150    0.63800    0.92270    1.000
    C22      C        0.52060    0.59710    0.30950    1.000
    C23      C        0.61250    0.53960    0.28950    1.000
    C24      C        0.94670    0.41600    0.32510    1.000
    C25      C        0.74420    0.69830    0.13630    1.000
    C26      C        0.53620    0.70650    0.23970    1.000
    C27      C        0.99830    0.06740    0.47770    1.000
    C28      C        0.32910    0.90200    0.21050    1.000
    C29      C        0.04510    0.47600    0.02230    1.000
    C30      C        0.67090    0.09800    0.78950    1.000
    C31      C        0.40660    0.83010    0.19050    1.000
    C32      C        0.02070    0.49830    0.54280    1.000
    C33      C        0.47940    0.40290    0.69050    1.000
    C34      C        0.01750    0.59090    0.59540    1.000
    C35      C        0.45890    0.43650    0.04280    1.000
    C36      C        0.97930    0.50170    0.45720    1.000
    C37      C        0.98250    0.40910    0.40460    1.000
    C38      C        0.43520    0.24260    0.15600    1.000
    C39      C        0.46380    0.29350    0.76030    1.000
    C40      C        0.00170    0.93260    0.52230    1.000
    C41      C        0.54110    0.56350    0.95720    1.000
    C42      C        0.05330    0.58400    0.67490    1.000
    C43      C        0.06070    0.40420    0.57730    1.000
    C44      C        0.40520    0.80130    0.34930    1.000
    N1       N        0.70030    0.80180    0.79390    1.000
    N2       N        0.27190    0.40760    0.79630    1.000
    N3       N        0.90430    0.50580    0.29390    1.000
    N4       N        0.70390    0.06820    0.70370    1.000
    N5       N        0.29610    0.93180    0.29630    1.000
    N6       N        0.09570    0.49420    0.70610    1.000
    N7       N        0.72810    0.59240    0.20370    1.000
    N8       N        0.29970    0.19820    0.20610    1.000
    O1       O        0.14100    0.46250    0.96210    1.000
    O2       O        0.07080    0.12870    0.38830    1.000
    O3       O        0.01700    0.45910    0.11170    1.000
    O4       O        0.98300    0.54090    0.88830    1.000
    O5       O        0.07540    0.89690    0.46210    1.000
    O6       O        0.92460    0.10310    0.53790    1.000
    O7       O        0.92920    0.87130    0.61170    1.000
    O8       O        0.85900    0.53750    0.03790    1.000
