# CIF file generated by openbabel 3.1.0, see https://openbabel.org
data_I
_chemical_name_common 'ALUKUO_clean'
_cell_length_a 16.1044
_cell_length_b 16.1044
_cell_length_c 27.919
_cell_angle_alpha 79.8987
_cell_angle_beta 79.8987
_cell_angle_gamma 63.146
_space_group_name_H-M_alt 'P 1'
_space_group_name_Hall 'P 1'
loop_
    _symmetry_equiv_pos_as_xyz
    x,y,z
loop_
    _atom_site_label
    _atom_site_type_symbol
    _atom_site_fract_x
    _atom_site_fract_y
    _atom_site_fract_z
    _atom_site_occupancy
    Eu1      Eu       0.53134    0.06657    0.04609    1.000
    Eu2      Eu       0.93343    0.46866    0.45391    1.000
    Eu3      Eu       0.46866    0.93343    0.95391    1.000
    Eu4      Eu       0.06657    0.53134    0.54609    1.000
    H1       H        0.63320    0.06560    0.20330    1.000
    H2       H        0.70740    0.10660    0.25360    1.000
    H3       H        0.84180    0.19380    0.13350    1.000
    H4       H        0.75940    0.16100    0.08560    1.000
    H5       H        0.67510    0.17250    0.91020    1.000
    H6       H        0.73850    0.23310    0.84130    1.000
    H7       H        0.63290    0.13470    0.75740    1.000
    H8       H        0.56950    0.06790    0.82920    1.000
    H9       H        0.17590    0.21070    0.94440    1.000
    H10      H        0.05090    0.35430    0.95690    1.000
    H11      H        0.19280    0.41160    0.03960    1.000
    H12      H        0.31790    0.26850    0.03100    1.000
    H13      H        0.93440    0.36680    0.29670    1.000
    H14      H        0.89340    0.29260    0.24640    1.000
    H15      H        0.80620    0.15820    0.36650    1.000
    H16      H        0.83900    0.24060    0.41440    1.000
    H17      H        0.82750    0.32490    0.58980    1.000
    H18      H        0.76690    0.26150    0.65870    1.000
    H19      H        0.86530    0.36710    0.74260    1.000
    H20      H        0.93210    0.43050    0.67080    1.000
    H21      H        0.78930    0.82410    0.55560    1.000
    H22      H        0.64570    0.94910    0.54310    1.000
    H23      H        0.58840    0.80720    0.46040    1.000
    H24      H        0.73150    0.68210    0.46900    1.000
    H25      H        0.36680    0.93440    0.79670    1.000
    H26      H        0.29260    0.89340    0.74640    1.000
    H27      H        0.15820    0.80620    0.86650    1.000
    H28      H        0.24060    0.83900    0.91440    1.000
    H29      H        0.32490    0.82750    0.08980    1.000
    H30      H        0.26150    0.76690    0.15870    1.000
    H31      H        0.36710    0.86530    0.24260    1.000
    H32      H        0.43050    0.93210    0.17080    1.000
    H33      H        0.82410    0.78930    0.05560    1.000
    H34      H        0.94910    0.64570    0.04310    1.000
    H35      H        0.80720    0.58840    0.96040    1.000
    H36      H        0.68210    0.73150    0.96900    1.000
    H37      H        0.06560    0.63320    0.70330    1.000
    H38      H        0.10660    0.70740    0.75360    1.000
    H39      H        0.19380    0.84180    0.63350    1.000
    H40      H        0.16100    0.75940    0.58560    1.000
    H41      H        0.17250    0.67510    0.41020    1.000
    H42      H        0.23310    0.73850    0.34130    1.000
    H43      H        0.13470    0.63290    0.25740    1.000
    H44      H        0.06790    0.56950    0.32920    1.000
    H45      H        0.21070    0.17590    0.44440    1.000
    H46      H        0.35430    0.05090    0.45690    1.000
    H47      H        0.41160    0.19280    0.53960    1.000
    H48      H        0.26850    0.31790    0.53100    1.000
    C1       C        0.64531    0.07611    0.11000    1.000
    C2       C        0.70513    0.09217    0.13885    1.000
    C3       C        0.67801    0.08701    0.18987    1.000
    C4       C        0.71990    0.11480    0.21970    1.000
    C5       C        0.77995    0.15455    0.19899    1.000
    C6       C        0.80024    0.16860    0.14748    1.000
    C7       C        0.75568    0.14332    0.11917    1.000
    C8       C        0.57842    0.07616    0.92317    1.000
    C9       C        0.61811    0.11305    0.87701    1.000
    C10      C        0.66732    0.16332    0.87958    1.000
    C11      C        0.70502    0.20002    0.83870    1.000
    C12      C        0.69283    0.18763    0.79534    1.000
    C13      C        0.64155    0.14017    0.78854    1.000
    C14      C        0.60327    0.10071    0.83152    1.000
    C15      C        0.33559    0.12951    0.98095    1.000
    C16      C        0.25944    0.22300    0.98745    1.000
    C17      C        0.17918    0.24978    0.96412    1.000
    C18      C        0.10525    0.33585    0.97145    1.000
    C19      C        0.11007    0.39799    0.00114    1.000
    C20      C        0.18881    0.37081    0.02126    1.000
    C21      C        0.26448    0.28528    0.01608    1.000
    C22      C        0.92389    0.35469    0.39000    1.000
    C23      C        0.90783    0.29487    0.36115    1.000
    C24      C        0.91299    0.32199    0.31013    1.000
    C25      C        0.88520    0.28010    0.28030    1.000
    C26      C        0.84545    0.22005    0.30101    1.000
    C27      C        0.83140    0.19976    0.35252    1.000
    C28      C        0.85668    0.24432    0.38083    1.000
    C29      C        0.92384    0.42158    0.57683    1.000
    C30      C        0.88695    0.38189    0.62299    1.000
    C31      C        0.83668    0.33268    0.62042    1.000
    C32      C        0.79998    0.29498    0.66130    1.000
    C33      C        0.81237    0.30717    0.70466    1.000
    C34      C        0.85983    0.35845    0.71146    1.000
    C35      C        0.89929    0.39673    0.66848    1.000
    C36      C        0.87049    0.66441    0.51905    1.000
    C37      C        0.77700    0.74056    0.51255    1.000
    C38      C        0.75022    0.82082    0.53588    1.000
    C39      C        0.66415    0.89475    0.52855    1.000
    C40      C        0.60201    0.88993    0.49886    1.000
    C41      C        0.62919    0.81119    0.47874    1.000
    C42      C        0.71472    0.73552    0.48392    1.000
    C43      C        0.35469    0.92389    0.89000    1.000
    C44      C        0.29487    0.90783    0.86115    1.000
    C45      C        0.32199    0.91299    0.81013    1.000
    C46      C        0.28010    0.88520    0.78030    1.000
    C47      C        0.22005    0.84545    0.80101    1.000
    C48      C        0.19976    0.83140    0.85252    1.000
    C49      C        0.24432    0.85668    0.88083    1.000
    C50      C        0.42158    0.92384    0.07683    1.000
    C51      C        0.38189    0.88695    0.12299    1.000
    C52      C        0.33268    0.83668    0.12042    1.000
    C53      C        0.29498    0.79998    0.16130    1.000
    C54      C        0.30717    0.81237    0.20466    1.000
    C55      C        0.35845    0.85983    0.21146    1.000
    C56      C        0.39673    0.89929    0.16848    1.000
    C57      C        0.66441    0.87049    0.01905    1.000
    C58      C        0.74056    0.77700    0.01255    1.000
    C59      C        0.82082    0.75022    0.03588    1.000
    C60      C        0.89475    0.66415    0.02855    1.000
    C61      C        0.88993    0.60201    0.99886    1.000
    C62      C        0.81119    0.62919    0.97874    1.000
    C63      C        0.73552    0.71472    0.98392    1.000
    C64      C        0.07611    0.64531    0.61000    1.000
    C65      C        0.09217    0.70513    0.63885    1.000
    C66      C        0.08701    0.67801    0.68987    1.000
    C67      C        0.11480    0.71990    0.71970    1.000
    C68      C        0.15455    0.77995    0.69899    1.000
    C69      C        0.16860    0.80024    0.64748    1.000
    C70      C        0.14332    0.75568    0.61917    1.000
    C71      C        0.07616    0.57842    0.42317    1.000
    C72      C        0.11305    0.61811    0.37701    1.000
    C73      C        0.16332    0.66732    0.37958    1.000
    C74      C        0.20002    0.70502    0.33870    1.000
    C75      C        0.18763    0.69283    0.29534    1.000
    C76      C        0.14017    0.64155    0.28854    1.000
    C77      C        0.10071    0.60327    0.33152    1.000
    C78      C        0.12951    0.33559    0.48095    1.000
    C79      C        0.22300    0.25944    0.48745    1.000
    C80      C        0.24978    0.17918    0.46412    1.000
    C81      C        0.33585    0.10525    0.47145    1.000
    C82      C        0.39799    0.11007    0.50114    1.000
    C83      C        0.37081    0.18881    0.52126    1.000
    C84      C        0.28528    0.26448    0.51608    1.000
    N1       N        0.81996    0.19094    0.22532    1.000
    N2       N        0.72372    0.22590    0.75093    1.000
    N3       N        0.04436    0.48418    0.00520    1.000
    N4       N        0.80906    0.18004    0.27468    1.000
    N5       N        0.77410    0.27628    0.74907    1.000
    N6       N        0.51582    0.95564    0.49480    1.000
    N7       N        0.18004    0.80906    0.77468    1.000
    N8       N        0.27628    0.77410    0.24907    1.000
    N9       N        0.95564    0.51582    0.99480    1.000
    N10      N        0.19094    0.81996    0.72532    1.000
    N11      N        0.22590    0.72372    0.25093    1.000
    N12      N        0.48418    0.04436    0.50520    1.000
    O1       O        0.59076    0.04176    0.12591    1.000
    O2       O        0.65647    0.10377    0.06337    1.000
    O3       O        0.59233    0.08465    0.96484    1.000
    O4       O        0.53102    0.03640    0.91389    1.000
    O5       O        0.40294    0.10378    0.00293    1.000
    O6       O        0.32488    0.07948    0.95382    1.000
    O7       O        0.95824    0.40924    0.37409    1.000
    O8       O        0.89623    0.34353    0.43663    1.000
    O9       O        0.91535    0.40767    0.53516    1.000
    O10      O        0.96360    0.46898    0.58611    1.000
    O11      O        0.89622    0.59706    0.49707    1.000
    O12      O        0.92052    0.67512    0.54618    1.000
    O13      O        0.40924    0.95824    0.87409    1.000
    O14      O        0.34353    0.89623    0.93663    1.000
    O15      O        0.40767    0.91535    0.03516    1.000
    O16      O        0.46898    0.96360    0.08611    1.000
    O17      O        0.59706    0.89622    0.99707    1.000
    O18      O        0.67512    0.92052    0.04618    1.000
    O19      O        0.04176    0.59076    0.62591    1.000
    O20      O        0.10377    0.65647    0.56337    1.000
    O21      O        0.08465    0.59233    0.46484    1.000
    O22      O        0.03640    0.53102    0.41389    1.000
    O23      O        0.10378    0.40294    0.50293    1.000
    O24      O        0.07948    0.32488    0.45382    1.000
