# CIF file generated by openbabel 3.1.0, see https://openbabel.org
data_I
_chemical_name_common 'UKAPUS_clean'
_cell_length_a 10.7298
_cell_length_b 11.9079
_cell_length_c 14.7678
_cell_angle_alpha 73.057
_cell_angle_beta 71.528
_cell_angle_gamma 66.456
_space_group_name_H-M_alt 'P 1'
_space_group_name_Hall 'P 1'
loop_
    _symmetry_equiv_pos_as_xyz
    x,y,z
loop_
    _atom_site_label
    _atom_site_type_symbol
    _atom_site_fract_x
    _atom_site_fract_y
    _atom_site_fract_z
    _atom_site_occupancy
    Nd1      Nd       0.01495    0.45055    0.37171    1.000
    Nd2      Nd       0.98505    0.54945    0.62829    1.000
    P1       P        0.85928    0.28190    0.27352    1.000
    P2       P        0.14072    0.71810    0.72648    1.000
    H1       H        0.49770    0.36260    0.55780    1.000
    H2       H        0.04980    0.10280    0.38140    1.000
    H3       H        0.72630    0.31960    0.46320    1.000
    H4       H        0.02780    0.17530    0.10750    1.000
    H5       H        0.35910    0.38530    0.32460    1.000
    H6       H        0.58940    0.33490    0.23110    1.000
    H7       H        0.81520    0.08410    0.22180    1.000
    H8       H        0.75030    0.57750    0.98340    1.000
    H9       H        0.06060    0.25090    0.93920    1.000
    H10      H        0.11540    0.88700    0.43530    1.000
    H11      H        0.89540    0.86440    0.26720    1.000
    H12      H        0.72560    0.50820    0.15230    1.000
    H13      H        0.50230    0.63740    0.44220    1.000
    H14      H        0.95020    0.89720    0.61860    1.000
    H15      H        0.27370    0.68040    0.53680    1.000
    H16      H        0.97220    0.82470    0.89250    1.000
    H17      H        0.64090    0.61470    0.67540    1.000
    H18      H        0.41060    0.66510    0.76890    1.000
    H19      H        0.18480    0.91590    0.77820    1.000
    H20      H        0.24970    0.42250    0.01660    1.000
    H21      H        0.93940    0.74910    0.06080    1.000
    H22      H        0.88460    0.11300    0.56470    1.000
    H23      H        0.10460    0.13560    0.73280    1.000
    H24      H        0.27440    0.49180    0.84770    1.000
    C1       C        0.87160    0.33430    0.14560    1.000
    C2       C        0.51610    0.35850    0.49140    1.000
    C3       C        0.92400    0.11350    0.29870    1.000
    C4       C        0.67900    0.32500    0.33790    1.000
    C5       C        0.01510    0.05510    0.36040    1.000
    C6       C        0.65190    0.33240    0.43530    1.000
    C7       C        0.40600    0.37900    0.45000    1.000
    C8       C        0.97240    0.25700    0.08270    1.000
    C9       C        0.43360    0.37110    0.35280    1.000
    C10      C        0.57030    0.34250    0.29680    1.000
    C11      C        0.87740    0.04370    0.26420    1.000
    C12      C        0.90730    0.42020    0.94570    1.000
    C13      C        0.92980    0.46280    0.83740    1.000
    C14      C        0.80740    0.49680    0.00850    1.000
    C15      C        0.99050    0.30190    0.98260    1.000
    C16      C        0.00860    0.85630    0.35850    1.000
    C17      C        0.05540    0.92690    0.39140    1.000
    C18      C        0.92290    0.91330    0.29270    1.000
    C19      C        0.04490    0.71760    0.39780    1.000
    C20      C        0.26060    0.41270    0.51100    1.000
    C21      C        0.79120    0.45480    0.10900    1.000
    C22      C        0.12840    0.66570    0.85440    1.000
    C23      C        0.48390    0.64150    0.50860    1.000
    C24      C        0.07600    0.88650    0.70130    1.000
    C25      C        0.32100    0.67500    0.66210    1.000
    C26      C        0.98490    0.94490    0.63960    1.000
    C27      C        0.34810    0.66760    0.56470    1.000
    C28      C        0.59400    0.62100    0.55000    1.000
    C29      C        0.02760    0.74300    0.91730    1.000
    C30      C        0.56640    0.62890    0.64720    1.000
    C31      C        0.42970    0.65750    0.70320    1.000
    C32      C        0.12260    0.95630    0.73580    1.000
    C33      C        0.09270    0.57980    0.05430    1.000
    C34      C        0.07020    0.53720    0.16260    1.000
    C35      C        0.19260    0.50320    0.99150    1.000
    C36      C        0.00950    0.69810    0.01740    1.000
    C37      C        0.99140    0.14370    0.64150    1.000
    C38      C        0.94460    0.07310    0.60860    1.000
    C39      C        0.07710    0.08670    0.70730    1.000
    C40      C        0.95510    0.28240    0.60220    1.000
    C41      C        0.73940    0.58730    0.48900    1.000
    C42      C        0.20880    0.54520    0.89100    1.000
    O1       O        0.04890    0.41870    0.78540    1.000
    O2       O        0.23870    0.43390    0.59470    1.000
    O3       O        0.07240    0.67990    0.48070    1.000
    O4       O        0.82660    0.54040    0.80030    1.000
    O5       O        0.04250    0.65150    0.34620    1.000
    O6       O        0.15940    0.42290    0.47750    1.000
    O7       O        0.93910    0.32970    0.31110    1.000
    O8       O        0.95110    0.58130    0.21460    1.000
    O9       O        0.76130    0.56610    0.40530    1.000
    O10      O        0.92760    0.32010    0.51930    1.000
    O11      O        0.17340    0.45960    0.19970    1.000
    O12      O        0.95750    0.34850    0.65380    1.000
    O13      O        0.84060    0.57710    0.52250    1.000
    O14      O        0.06090    0.67030    0.68890    1.000
