# CIF file generated by openbabel 3.1.0, see https://openbabel.org
data_I
_chemical_name_common 'image0'
_cell_length_a 12.1217
_cell_length_b 15.4505
_cell_length_c 15.5311
_cell_angle_alpha 61.008
_cell_angle_beta 83.217
_cell_angle_gamma 82.867
_space_group_name_H-M_alt 'P 1'
_space_group_name_Hall 'P 1'
loop_
    _symmetry_equiv_pos_as_xyz
    x,y,z
loop_
    _atom_site_label
    _atom_site_type_symbol
    _atom_site_fract_x
    _atom_site_fract_y
    _atom_site_fract_z
    _atom_site_occupancy
    Ag1      Ag       0.11593    0.53478    0.49727    1.000
    Ag2      Ag       0.36585    0.47346    0.47886    1.000
    Ag3      Ag       0.46761    0.37848    0.67193    1.000
    Si1      Si       0.33665    0.18613    0.15495    1.000
    N1       N        0.08620    0.43226    0.43552    1.000
    N2       N        0.16120    0.45362    0.65442    1.000
    N3       N        0.13710    0.69378    0.40471    1.000
    C1       C        0.27293    0.25461    0.22372    1.000
    C2       C        0.16890    0.30752    0.20347    1.000
    H1       H        0.13070    0.31220    0.15120    1.000
    C3       C        0.11990    0.35348    0.25771    1.000
    H2       H        0.04850    0.38840    0.24330    1.000
    C4       C        0.17601    0.34802    0.33300    1.000
    C5       C        0.28057    0.29672    0.35436    1.000
    H3       H        0.31950    0.29350    0.40560    1.000
    C6       C        0.32699    0.25047    0.29984    1.000
    H4       H        0.39790    0.21480    0.31490    1.000
    C7       C        0.12629    0.39518    0.39015    1.000
    C8       C        0.28798    0.25416    0.02619    1.000
    C9       C        0.20830    0.21913    0.99584    1.000
    H5       H        0.17640    0.15900    0.04150    1.000
    C10      C        0.17440    0.27030    0.89988    1.000
    H6       H        0.11970    0.24560    0.88020    1.000
    C11      C        0.22140    0.35780    0.83345    1.000
    C12      C        0.30070    0.39440    0.86176    1.000
    H7       H        0.33240    0.45470    0.81600    1.000
    C13      C        0.33350    0.34236    0.95732    1.000
    H8       H        0.38840    0.36730    0.97650    1.000
    C14      C        0.18730    0.41140    0.73330    1.000
    C15      C        0.28301    0.05925    0.21825    1.000
    C16      C        0.17720    0.04225    0.26653    1.000
    H9       H        0.13070    0.09620    0.26710    1.000
    C17      C        0.13840    0.94868    0.31354    1.000
    H10      H        0.06630    0.93840    0.34660    1.000
    C18      C        0.20570    0.87004    0.31201    1.000
    C19      C        0.31050    0.88456    0.26326    1.000
    H11      H        0.35590    0.83050    0.26170    1.000
    C20      C        0.34830    0.97826    0.21696    1.000
    H12      H        0.42020    0.98820    0.18340    1.000
    C21      C        0.16680    0.77145    0.36356    1.000
    C22      C        0.49130    0.17714    0.15215    1.000
    H13      H        0.51460    0.14910    0.21940    1.000
    H14      H        0.51810    0.24340    0.11170    1.000
    H15      H        0.52270    0.13410    0.12390    1.000
    O1       O        0.29677    0.53979    0.32462    1.000
    O2       O        0.38528    0.67890    0.23266    1.000
    F1       F        0.14410    0.71360    0.19060    1.000
    F2       F        0.26830    0.71740    0.08250    1.000
    F3       F        0.18650    0.58868    0.16660    1.000
    C23      C        0.31220    0.62193    0.25220    1.000
    C24      C        0.22450    0.66040    0.17470    1.000
    O3       O        0.31420    0.32240    0.54580    1.000
    O4       O        0.35830    0.25920    0.70280    1.000
    C25      C        0.31230    0.26130    0.63500    1.000
    C26      C        0.23480    0.17870    0.66900    1.000
    F4       F        0.28210    0.08950    0.72660    1.000
    F5       F        0.14710    0.19160    0.72120    1.000
    F6       F        0.19850    0.17130    0.59600    1.000
    O5       O        0.39021    0.61128    0.48519    1.000
    O6       O        0.42040    0.53986    0.64447    1.000
    F7       F        0.27930    0.74290    0.56010    1.000
    F8       F        0.42730    0.71667    0.62920    1.000
    F9       F        0.42540    0.78129    0.47260    1.000
    C27      C        0.39930    0.60946    0.56430    1.000
    C28      C        0.38270    0.71130    0.55920    1.000
    F10      F        0.24110    0.63600    0.11570    1.000
    F11      F        0.12060    0.62340    0.22400    1.000
    F12      F        0.19860    0.75000    0.14020    1.000
    O7       O        0.34500    0.30200    0.54700    1.000
    O8       O        0.38800    0.23800    0.70200    1.000
    C29      C        0.34400    0.23830    0.63480    1.000
    C30      C        0.29500    0.14280    0.65490    1.000
    F13      F        0.33300    0.06900    0.73600    1.000
    F14      F        0.18440    0.16000    0.65700    1.000
    F15      F        0.32100    0.12030    0.58350    1.000
    Ag4      Ag       0.88407    0.46522    0.50273    1.000
    Ag5      Ag       0.63415    0.52654    0.52114    1.000
    Ag6      Ag       0.53239    0.62152    0.32807    1.000
    Si2      Si       0.66335    0.81387    0.84505    1.000
    N4       N        0.91380    0.56774    0.56448    1.000
    N5       N        0.83880    0.54638    0.34558    1.000
    N6       N        0.86290    0.30622    0.59529    1.000
    C31      C        0.72707    0.74539    0.77628    1.000
    C32      C        0.83110    0.69248    0.79653    1.000
    H16      H        0.86930    0.68780    0.84880    1.000
    C33      C        0.88010    0.64652    0.74229    1.000
    H17      H        0.95150    0.61160    0.75670    1.000
    C34      C        0.82399    0.65198    0.66700    1.000
    C35      C        0.71943    0.70328    0.64564    1.000
    H18      H        0.68050    0.70650    0.59440    1.000
    C36      C        0.67301    0.74953    0.70016    1.000
    H19      H        0.60210    0.78520    0.68510    1.000
    C37      C        0.87371    0.60482    0.60985    1.000
    C38      C        0.71202    0.74584    0.97381    1.000
    C39      C        0.79170    0.78087    0.00416    1.000
    H20      H        0.82360    0.84100    0.95850    1.000
    C40      C        0.82560    0.72970    0.10012    1.000
    H21      H        0.88030    0.75440    0.11980    1.000
    C41      C        0.77860    0.64220    0.16655    1.000
    C42      C        0.69930    0.60560    0.13824    1.000
    H22      H        0.66760    0.54530    0.18400    1.000
    C43      C        0.66650    0.65764    0.04268    1.000
    H23      H        0.61160    0.63270    0.02350    1.000
    C44      C        0.81270    0.58860    0.26670    1.000
    C45      C        0.71699    0.94075    0.78175    1.000
    C46      C        0.82280    0.95775    0.73347    1.000
    H24      H        0.86930    0.90380    0.73290    1.000
    C47      C        0.86160    0.05132    0.68646    1.000
    H25      H        0.93370    0.06160    0.65340    1.000
    C48      C        0.79430    0.12996    0.68799    1.000
    C49      C        0.68950    0.11544    0.73674    1.000
    H26      H        0.64410    0.16950    0.73830    1.000
    C50      C        0.65170    0.02174    0.78304    1.000
    H27      H        0.57980    0.01180    0.81660    1.000
    C51      C        0.83320    0.22855    0.63644    1.000
    C52      C        0.50870    0.82286    0.84785    1.000
    H28      H        0.48540    0.85090    0.78060    1.000
    H29      H        0.48190    0.75660    0.88830    1.000
    H30      H        0.47730    0.86590    0.87610    1.000
    O9       O        0.70323    0.46021    0.67538    1.000
    O10      O        0.61472    0.32110    0.76734    1.000
    F16      F        0.85590    0.28640    0.80940    1.000
    F17      F        0.73170    0.28260    0.91750    1.000
    F18      F        0.81350    0.41132    0.83340    1.000
    C53      C        0.68780    0.37807    0.74780    1.000
    C54      C        0.77550    0.33960    0.82530    1.000
    O11      O        0.68580    0.67760    0.45420    1.000
    O12      O        0.64170    0.74080    0.29720    1.000
    C55      C        0.68770    0.73870    0.36500    1.000
    C56      C        0.76520    0.82130    0.33100    1.000
    F19      F        0.71790    0.91050    0.27340    1.000
    F20      F        0.85290    0.80840    0.27880    1.000
    F21      F        0.80150    0.82870    0.40400    1.000
    O13      O        0.60979    0.38872    0.51481    1.000
    O14      O        0.57960    0.46014    0.35553    1.000
    F22      F        0.72070    0.25710    0.43990    1.000
    F23      F        0.57270    0.28333    0.37080    1.000
    F24      F        0.57460    0.21871    0.52740    1.000
    C57      C        0.60070    0.39054    0.43570    1.000
    C58      C        0.61730    0.28870    0.44080    1.000
    F25      F        0.75890    0.36400    0.88430    1.000
    F26      F        0.87940    0.37660    0.77600    1.000
    F27      F        0.80140    0.25000    0.85980    1.000
    O15      O        0.65500    0.69800    0.45300    1.000
    O16      O        0.61200    0.76200    0.29800    1.000
    C59      C        0.65600    0.76170    0.36520    1.000
    C60      C        0.70500    0.85720    0.34510    1.000
    F28      F        0.66700    0.93100    0.26400    1.000
    F29      F        0.81560    0.84000    0.34300    1.000
    F30      F        0.67900    0.87970    0.41650    1.000
