# CIF file generated by openbabel 3.1.0, see https://openbabel.org
data_I
_chemical_name_common 'image0'
_cell_length_a 13.809
_cell_length_b 13.809
_cell_length_c 14.836
_cell_angle_alpha 90
_cell_angle_beta 90
_cell_angle_gamma 120
_space_group_name_H-M_alt 'P 1'
_space_group_name_Hall 'P 1'
loop_
    _symmetry_equiv_pos_as_xyz
    x,y,z
loop_
    _atom_site_label
    _atom_site_type_symbol
    _atom_site_fract_x
    _atom_site_fract_y
    _atom_site_fract_z
    _atom_site_occupancy
    Al1      Al       0.99690    0.22560    0.10340    1.000
    P1       P        0.99650    0.22450    0.89120    1.000
    O1       O        0.99600    0.25510    0.99090    1.000
    O2       O        0.88380    0.12270    0.86460    1.000
    O3       O        0.08920    0.19560    0.87290    1.000
    O4       O        0.01400    0.32380    0.83220    1.000
    Al2      Al       0.66357    0.55893    0.43673    1.000
    P2       P        0.66317    0.55783    0.22453    1.000
    O5       O        0.66267    0.58843    0.32423    1.000
    O6       O        0.55047    0.45603    0.19793    1.000
    O7       O        0.75587    0.52893    0.20623    1.000
    O8       O        0.68067    0.65713    0.16553    1.000
    Al3      Al       0.33023    0.89227    0.77007    1.000
    P3       P        0.32983    0.89117    0.55787    1.000
    O9       O        0.32933    0.92177    0.65757    1.000
    O10      O        0.21713    0.78937    0.53127    1.000
    O11      O        0.42253    0.86227    0.53957    1.000
    O12      O        0.34733    0.99047    0.49887    1.000
    Al4      Al       0.77440    0.77130    0.10340    1.000
    P4       P        0.77550    0.77200    0.89120    1.000
    O13      O        0.74490    0.74090    0.99090    1.000
    O14      O        0.87730    0.76110    0.86460    1.000
    O15      O        0.80440    0.89360    0.87290    1.000
    O16      O        0.67620    0.69020    0.83220    1.000
    Al5      Al       0.44107    0.10463    0.43673    1.000
    P5       P        0.44217    0.10533    0.22453    1.000
    O17      O        0.41157    0.07423    0.32423    1.000
    O18      O        0.54397    0.09443    0.19793    1.000
    O19      O        0.47107    0.22693    0.20623    1.000
    O20      O        0.34287    0.02353    0.16553    1.000
    Al6      Al       0.10773    0.43797    0.77007    1.000
    P6       P        0.10883    0.43867    0.55787    1.000
    O21      O        0.07823    0.40757    0.65757    1.000
    O22      O        0.21063    0.42777    0.53127    1.000
    O23      O        0.13773    0.56027    0.53957    1.000
    O24      O        0.00953    0.35687    0.49887    1.000
    Al7      Al       0.22870    0.00310    0.10340    1.000
    P7       P        0.22800    0.00350    0.89120    1.000
    O25      O        0.25910    0.00400    0.99090    1.000
    O26      O        0.23890    0.11620    0.86460    1.000
    O27      O        0.10640    0.91080    0.87290    1.000
    O28      O        0.30980    0.98600    0.83220    1.000
    Al8      Al       0.89537    0.33643    0.43673    1.000
    P8       P        0.89467    0.33683    0.22453    1.000
    O29      O        0.92577    0.33733    0.32423    1.000
    O30      O        0.90557    0.44953    0.19793    1.000
    O31      O        0.77307    0.24413    0.20623    1.000
    O32      O        0.97647    0.31933    0.16553    1.000
    Al9      Al       0.56203    0.66977    0.77007    1.000
    P9       P        0.56133    0.67017    0.55787    1.000
    O33      O        0.59243    0.67067    0.65757    1.000
    O34      O        0.57223    0.78287    0.53127    1.000
    O35      O        0.43973    0.57747    0.53957    1.000
    O36      O        0.64313    0.65267    0.49887    1.000
    Al10     Al       0.00310    0.77440    0.89660    1.000
    P10      P        0.00350    0.77550    0.10880    1.000
    O37      O        0.00400    0.74490    0.00910    1.000
    O38      O        0.11620    0.87730    0.13540    1.000
    O39      O        0.91080    0.80440    0.12710    1.000
    O40      O        0.98600    0.67620    0.16780    1.000
    Al11     Al       0.66977    0.10773    0.22993    1.000
    P11      P        0.67017    0.10883    0.44213    1.000
    O41      O        0.67067    0.07823    0.34243    1.000
    O42      O        0.78287    0.21063    0.46873    1.000
    O43      O        0.57747    0.13773    0.46043    1.000
    O44      O        0.65267    0.00953    0.50113    1.000
    Al12     Al       0.33643    0.44107    0.56327    1.000
    P12      P        0.33683    0.44217    0.77547    1.000
    O45      O        0.33733    0.41157    0.67577    1.000
    O46      O        0.44953    0.54397    0.80207    1.000
    O47      O        0.24413    0.47107    0.79377    1.000
    O48      O        0.31933    0.34287    0.83447    1.000
    Al13     Al       0.22560    0.22870    0.89660    1.000
    P13      P        0.22450    0.22800    0.10880    1.000
    O49      O        0.25510    0.25910    0.00910    1.000
    O50      O        0.12270    0.23890    0.13540    1.000
    O51      O        0.19560    0.10640    0.12710    1.000
    O52      O        0.32380    0.30980    0.16780    1.000
    Al14     Al       0.89227    0.56203    0.22993    1.000
    P14      P        0.89117    0.56133    0.44213    1.000
    O53      O        0.92177    0.59243    0.34243    1.000
    O54      O        0.78937    0.57223    0.46873    1.000
    O55      O        0.86227    0.43973    0.46043    1.000
    O56      O        0.99047    0.64313    0.50113    1.000
    Al15     Al       0.55893    0.89537    0.56327    1.000
    P15      P        0.55783    0.89467    0.77547    1.000
    O57      O        0.58843    0.92577    0.67577    1.000
    O58      O        0.45603    0.90557    0.80207    1.000
    O59      O        0.52893    0.77307    0.79377    1.000
    O60      O        0.65713    0.97647    0.83447    1.000
    Al16     Al       0.77130    0.99690    0.89660    1.000
    P16      P        0.77200    0.99650    0.10880    1.000
    O61      O        0.74090    0.99600    0.00910    1.000
    O62      O        0.76110    0.88380    0.13540    1.000
    O63      O        0.89360    0.08920    0.12710    1.000
    O64      O        0.69020    0.01400    0.16780    1.000
    Al17     Al       0.43797    0.33023    0.22993    1.000
    P17      P        0.43867    0.32983    0.44213    1.000
    O65      O        0.40757    0.32933    0.34243    1.000
    O66      O        0.42777    0.21713    0.46873    1.000
    O67      O        0.56027    0.42253    0.46043    1.000
    O68      O        0.35687    0.34733    0.50113    1.000
    Al18     Al       0.10463    0.66357    0.56327    1.000
    P18      P        0.10533    0.66317    0.77547    1.000
    O69      O        0.07423    0.66267    0.67577    1.000
    O70      O        0.09443    0.55047    0.80207    1.000
    O71      O        0.22693    0.75587    0.79377    1.000
    O72      O        0.02353    0.68067    0.83447    1.000
