# CIF file generated by openbabel 3.1.0, see https://openbabel.org
data_I
_chemical_name_common 'FELVEZ_clean'
_cell_length_a 18.7209
_cell_length_b 18.7209
_cell_length_c 18.7209
_cell_angle_alpha 60
_cell_angle_beta 60
_cell_angle_gamma 60
_space_group_name_H-M_alt 'P 1'
_space_group_name_Hall 'P 1'
loop_
    _symmetry_equiv_pos_as_xyz
    x,y,z
loop_
    _atom_site_label
    _atom_site_type_symbol
    _atom_site_fract_x
    _atom_site_fract_y
    _atom_site_fract_z
    _atom_site_occupancy
    Ca1      Ca       0.50000    0.50000    0.50000    1.000
    Ca2      Ca       0.00000    0.00000    0.50000    1.000
    Ca3      Ca       0.00000    0.50000    0.00000    1.000
    Ca4      Ca       0.00000    0.50000    0.50000    1.000
    Ca5      Ca       0.50000    0.50000    0.00000    1.000
    Ca6      Ca       0.00000    0.00000    0.00000    1.000
    Ca7      Ca       0.50000    0.00000    0.50000    1.000
    Ca8      Ca       0.50000    0.00000    0.00000    1.000
    Dy1      Dy       0.75000    0.25000    0.25000    1.000
    Dy2      Dy       0.75000    0.25000    0.75000    1.000
    Dy3      Dy       0.75000    0.75000    0.25000    1.000
    Dy4      Dy       0.25000    0.25000    0.25000    1.000
    Dy5      Dy       0.25000    0.75000    0.75000    1.000
    Dy6      Dy       0.25000    0.75000    0.25000    1.000
    Dy7      Dy       0.25000    0.25000    0.75000    1.000
    Dy8      Dy       0.75000    0.75000    0.75000    1.000
    H1       H        0.51600    0.41640    0.34480    1.000
    H2       H        0.57630    0.47410    0.29490    1.000
    H3       H        0.91640    0.01600    0.72280    1.000
    H4       H        0.97410    0.07630    0.65470    1.000
    H5       H        0.84480    0.72280    0.01600    1.000
    H6       H        0.79490    0.65470    0.07630    1.000
    H7       H        0.22280    0.34480    0.41640    1.000
    H8       H        0.15470    0.29490    0.47410    1.000
    H9       H        0.51600    0.34480    0.72280    1.000
    H10      H        0.57630    0.29490    0.65470    1.000
    H11      H        0.91640    0.72280    0.34480    1.000
    H12      H        0.97410    0.65470    0.29490    1.000
    H13      H        0.84480    0.01600    0.41640    1.000
    H14      H        0.79490    0.07630    0.47410    1.000
    H15      H        0.22280    0.41640    0.01600    1.000
    H16      H        0.15470    0.47410    0.07630    1.000
    H17      H        0.51600    0.72280    0.41640    1.000
    H18      H        0.57630    0.65470    0.47410    1.000
    H19      H        0.91640    0.34480    0.01600    1.000
    H20      H        0.97410    0.29490    0.07630    1.000
    H21      H        0.84480    0.41640    0.72280    1.000
    H22      H        0.79490    0.47410    0.65470    1.000
    H23      H        0.22280    0.01600    0.34480    1.000
    H24      H        0.15470    0.07630    0.29490    1.000
    H25      H        0.58360    0.48400    0.15520    1.000
    H26      H        0.52590    0.42370    0.20510    1.000
    H27      H        0.98400    0.08360    0.77720    1.000
    H28      H        0.92370    0.02590    0.84530    1.000
    H29      H        0.27720    0.15520    0.48400    1.000
    H30      H        0.34530    0.20510    0.42370    1.000
    H31      H        0.65520    0.77720    0.08360    1.000
    H32      H        0.70510    0.84530    0.02590    1.000
    H33      H        0.65520    0.48400    0.77720    1.000
    H34      H        0.70510    0.42370    0.84530    1.000
    H35      H        0.27720    0.08360    0.15520    1.000
    H36      H        0.34530    0.02590    0.20510    1.000
    H37      H        0.98400    0.15520    0.08360    1.000
    H38      H        0.92370    0.20510    0.02590    1.000
    H39      H        0.58360    0.77720    0.48400    1.000
    H40      H        0.52590    0.84530    0.42370    1.000
    H41      H        0.27720    0.48400    0.08360    1.000
    H42      H        0.34530    0.42370    0.02590    1.000
    H43      H        0.65520    0.08360    0.48400    1.000
    H44      H        0.70510    0.02590    0.42370    1.000
    H45      H        0.58360    0.15520    0.77720    1.000
    H46      H        0.52590    0.20510    0.84530    1.000
    H47      H        0.98400    0.77720    0.15520    1.000
    H48      H        0.92370    0.84530    0.20510    1.000
    H49      H        0.48400    0.58360    0.65520    1.000
    H50      H        0.42370    0.52590    0.70510    1.000
    H51      H        0.08360    0.98400    0.27720    1.000
    H52      H        0.02590    0.92370    0.34530    1.000
    H53      H        0.15520    0.27720    0.98400    1.000
    H54      H        0.20510    0.34530    0.92370    1.000
    H55      H        0.77720    0.65520    0.58360    1.000
    H56      H        0.84530    0.70510    0.52590    1.000
    H57      H        0.48400    0.65520    0.27720    1.000
    H58      H        0.42370    0.70510    0.34530    1.000
    H59      H        0.08360    0.27720    0.65520    1.000
    H60      H        0.02590    0.34530    0.70510    1.000
    H61      H        0.15520    0.98400    0.58360    1.000
    H62      H        0.20510    0.92370    0.52590    1.000
    H63      H        0.77720    0.58360    0.98400    1.000
    H64      H        0.84530    0.52590    0.92370    1.000
    H65      H        0.48400    0.27720    0.58360    1.000
    H66      H        0.42370    0.34530    0.52590    1.000
    H67      H        0.08360    0.65520    0.98400    1.000
    H68      H        0.02590    0.70510    0.92370    1.000
    H69      H        0.15520    0.58360    0.27720    1.000
    H70      H        0.20510    0.52590    0.34530    1.000
    H71      H        0.77720    0.98400    0.65520    1.000
    H72      H        0.84530    0.92370    0.70510    1.000
    H73      H        0.41640    0.51600    0.84480    1.000
    H74      H        0.47410    0.57630    0.79490    1.000
    H75      H        0.01600    0.91640    0.22280    1.000
    H76      H        0.07630    0.97410    0.15470    1.000
    H77      H        0.72280    0.84480    0.51600    1.000
    H78      H        0.65470    0.79490    0.57630    1.000
    H79      H        0.34480    0.22280    0.91640    1.000
    H80      H        0.29490    0.15470    0.97410    1.000
    H81      H        0.34480    0.51600    0.22280    1.000
    H82      H        0.29490    0.57630    0.15470    1.000
    H83      H        0.72280    0.91640    0.84480    1.000
    H84      H        0.65470    0.97410    0.79490    1.000
    H85      H        0.01600    0.84480    0.91640    1.000
    H86      H        0.07630    0.79490    0.97410    1.000
    H87      H        0.41640    0.22280    0.51600    1.000
    H88      H        0.47410    0.15470    0.57630    1.000
    H89      H        0.72280    0.51600    0.91640    1.000
    H90      H        0.65470    0.57630    0.97410    1.000
    H91      H        0.34480    0.91640    0.51600    1.000
    H92      H        0.29490    0.97410    0.57630    1.000
    H93      H        0.41640    0.84480    0.22280    1.000
    H94      H        0.47410    0.79490    0.15470    1.000
    H95      H        0.01600    0.22280    0.84480    1.000
    H96      H        0.07630    0.15470    0.79490    1.000
    C1       C        0.57630    0.41470    0.31810    1.000
    C2       C        0.62055    0.35973    0.38547    1.000
    C3       C        0.91470    0.07630    0.69090    1.000
    C4       C        0.85973    0.12055    0.63425    1.000
    C5       C        0.81810    0.69090    0.07630    1.000
    C6       C        0.88547    0.63425    0.12055    1.000
    C7       C        0.19090    0.31810    0.41470    1.000
    C8       C        0.13425    0.38547    0.35973    1.000
    C9       C        0.57630    0.31810    0.69090    1.000
    C10      C        0.62055    0.38547    0.63425    1.000
    C11      C        0.91470    0.69090    0.31810    1.000
    C12      C        0.85973    0.63425    0.38547    1.000
    C13      C        0.81810    0.07630    0.41470    1.000
    C14      C        0.88547    0.12055    0.35973    1.000
    C15      C        0.19090    0.41470    0.07630    1.000
    C16      C        0.13425    0.35973    0.12055    1.000
    C17      C        0.57630    0.69090    0.41470    1.000
    C18      C        0.62055    0.63425    0.35973    1.000
    C19      C        0.91470    0.31810    0.07630    1.000
    C20      C        0.85973    0.38547    0.12055    1.000
    C21      C        0.81810    0.41470    0.69090    1.000
    C22      C        0.88547    0.35973    0.63425    1.000
    C23      C        0.19090    0.07630    0.31810    1.000
    C24      C        0.13425    0.12055    0.38547    1.000
    C25      C        0.58530    0.42370    0.18190    1.000
    C26      C        0.64027    0.37945    0.11453    1.000
    C27      C        0.92370    0.08530    0.80910    1.000
    C28      C        0.87945    0.14027    0.86575    1.000
    C29      C        0.30910    0.18190    0.42370    1.000
    C30      C        0.36575    0.11453    0.37945    1.000
    C31      C        0.68190    0.80910    0.08530    1.000
    C32      C        0.61453    0.86575    0.14027    1.000
    C33      C        0.68190    0.42370    0.80910    1.000
    C34      C        0.61453    0.37945    0.86575    1.000
    C35      C        0.30910    0.08530    0.18190    1.000
    C36      C        0.36575    0.14027    0.11453    1.000
    C37      C        0.92370    0.18190    0.08530    1.000
    C38      C        0.87945    0.11453    0.14027    1.000
    C39      C        0.58530    0.80910    0.42370    1.000
    C40      C        0.64027    0.86575    0.37945    1.000
    C41      C        0.30910    0.42370    0.08530    1.000
    C42      C        0.36575    0.37945    0.14027    1.000
    C43      C        0.68190    0.08530    0.42370    1.000
    C44      C        0.61453    0.14027    0.37945    1.000
    C45      C        0.58530    0.18190    0.80910    1.000
    C46      C        0.64027    0.11453    0.86575    1.000
    C47      C        0.92370    0.80910    0.18190    1.000
    C48      C        0.87945    0.86575    0.11453    1.000
    C49      C        0.42370    0.58530    0.68190    1.000
    C50      C        0.37945    0.64027    0.61453    1.000
    C51      C        0.08530    0.92370    0.30910    1.000
    C52      C        0.14027    0.87945    0.36575    1.000
    C53      C        0.18190    0.30910    0.92370    1.000
    C54      C        0.11453    0.36575    0.87945    1.000
    C55      C        0.80910    0.68190    0.58530    1.000
    C56      C        0.86575    0.61453    0.64027    1.000
    C57      C        0.42370    0.68190    0.30910    1.000
    C58      C        0.37945    0.61453    0.36575    1.000
    C59      C        0.08530    0.30910    0.68190    1.000
    C60      C        0.14027    0.36575    0.61453    1.000
    C61      C        0.18190    0.92370    0.58530    1.000
    C62      C        0.11453    0.87945    0.64027    1.000
    C63      C        0.80910    0.58530    0.92370    1.000
    C64      C        0.86575    0.64027    0.87945    1.000
    C65      C        0.42370    0.30910    0.58530    1.000
    C66      C        0.37945    0.36575    0.64027    1.000
    C67      C        0.08530    0.68190    0.92370    1.000
    C68      C        0.14027    0.61453    0.87945    1.000
    C69      C        0.18190    0.58530    0.30910    1.000
    C70      C        0.11453    0.64027    0.36575    1.000
    C71      C        0.80910    0.92370    0.68190    1.000
    C72      C        0.86575    0.87945    0.61453    1.000
    C73      C        0.41470    0.57630    0.81810    1.000
    C74      C        0.35973    0.62055    0.88547    1.000
    C75      C        0.07630    0.91470    0.19090    1.000
    C76      C        0.12055    0.85973    0.13425    1.000
    C77      C        0.69090    0.81810    0.57630    1.000
    C78      C        0.63425    0.88547    0.62055    1.000
    C79      C        0.31810    0.19090    0.91470    1.000
    C80      C        0.38547    0.13425    0.85973    1.000
    C81      C        0.31810    0.57630    0.19090    1.000
    C82      C        0.38547    0.62055    0.13425    1.000
    C83      C        0.69090    0.91470    0.81810    1.000
    C84      C        0.63425    0.85973    0.88547    1.000
    C85      C        0.07630    0.81810    0.91470    1.000
    C86      C        0.12055    0.88547    0.85973    1.000
    C87      C        0.41470    0.19090    0.57630    1.000
    C88      C        0.35973    0.13425    0.62055    1.000
    C89      C        0.69090    0.57630    0.91470    1.000
    C90      C        0.63425    0.62055    0.85973    1.000
    C91      C        0.31810    0.91470    0.57630    1.000
    C92      C        0.38547    0.85973    0.62055    1.000
    C93      C        0.41470    0.81810    0.19090    1.000
    C94      C        0.35973    0.88547    0.13425    1.000
    C95      C        0.07630    0.19090    0.81810    1.000
    C96      C        0.12055    0.13425    0.88547    1.000
    O1       O        0.68705    0.29561    0.37195    1.000
    O2       O        0.58905    0.38161    0.45071    1.000
    O3       O        0.79561    0.18705    0.64539    1.000
    O4       O        0.88161    0.08905    0.57863    1.000
    O5       O        0.87195    0.64539    0.18705    1.000
    O6       O        0.95071    0.57863    0.08905    1.000
    O7       O        0.14539    0.37195    0.29561    1.000
    O8       O        0.07863    0.45071    0.38161    1.000
    O9       O        0.68705    0.37195    0.64539    1.000
    O10      O        0.58905    0.45071    0.57863    1.000
    O11      O        0.79561    0.64539    0.37195    1.000
    O12      O        0.88161    0.57863    0.45071    1.000
    O13      O        0.87195    0.18705    0.29561    1.000
    O14      O        0.95071    0.08905    0.38161    1.000
    O15      O        0.14539    0.29561    0.18705    1.000
    O16      O        0.07863    0.38161    0.08905    1.000
    O17      O        0.68705    0.64539    0.29561    1.000
    O18      O        0.58905    0.57863    0.38161    1.000
    O19      O        0.79561    0.37195    0.18705    1.000
    O20      O        0.88161    0.45071    0.08905    1.000
    O21      O        0.87195    0.29561    0.64539    1.000
    O22      O        0.95071    0.38161    0.57863    1.000
    O23      O        0.14539    0.18705    0.37195    1.000
    O24      O        0.07863    0.08905    0.45071    1.000
    O25      O        0.70439    0.31295    0.12805    1.000
    O26      O        0.61839    0.41095    0.04929    1.000
    O27      O        0.81295    0.20439    0.85461    1.000
    O28      O        0.91095    0.11839    0.92137    1.000
    O29      O        0.35461    0.12805    0.31295    1.000
    O30      O        0.42137    0.04929    0.41095    1.000
    O31      O        0.62805    0.85461    0.20439    1.000
    O32      O        0.54929    0.92137    0.11839    1.000
    O33      O        0.62805    0.31295    0.85461    1.000
    O34      O        0.54929    0.41095    0.92137    1.000
    O35      O        0.35461    0.20439    0.12805    1.000
    O36      O        0.42137    0.11839    0.04929    1.000
    O37      O        0.81295    0.12805    0.20439    1.000
    O38      O        0.91095    0.04929    0.11839    1.000
    O39      O        0.70439    0.85461    0.31295    1.000
    O40      O        0.61839    0.92137    0.41095    1.000
    O41      O        0.35461    0.31295    0.20439    1.000
    O42      O        0.42137    0.41095    0.11839    1.000
    O43      O        0.62805    0.20439    0.31295    1.000
    O44      O        0.54929    0.11839    0.41095    1.000
    O45      O        0.70439    0.12805    0.85461    1.000
    O46      O        0.61839    0.04929    0.92137    1.000
    O47      O        0.81295    0.85461    0.12805    1.000
    O48      O        0.91095    0.92137    0.04929    1.000
    O49      O        0.31295    0.70439    0.62805    1.000
    O50      O        0.41095    0.61839    0.54929    1.000
    O51      O        0.20439    0.81295    0.35461    1.000
    O52      O        0.11839    0.91095    0.42137    1.000
    O53      O        0.12805    0.35461    0.81295    1.000
    O54      O        0.04929    0.42137    0.91095    1.000
    O55      O        0.85461    0.62805    0.70439    1.000
    O56      O        0.92137    0.54929    0.61839    1.000
    O57      O        0.31295    0.62805    0.35461    1.000
    O58      O        0.41095    0.54929    0.42137    1.000
    O59      O        0.20439    0.35461    0.62805    1.000
    O60      O        0.11839    0.42137    0.54929    1.000
    O61      O        0.12805    0.81295    0.70439    1.000
    O62      O        0.04929    0.91095    0.61839    1.000
    O63      O        0.85461    0.70439    0.81295    1.000
    O64      O        0.92137    0.61839    0.91095    1.000
    O65      O        0.31295    0.35461    0.70439    1.000
    O66      O        0.41095    0.42137    0.61839    1.000
    O67      O        0.20439    0.62805    0.81295    1.000
    O68      O        0.11839    0.54929    0.91095    1.000
    O69      O        0.12805    0.70439    0.35461    1.000
    O70      O        0.04929    0.61839    0.42137    1.000
    O71      O        0.85461    0.81295    0.62805    1.000
    O72      O        0.92137    0.91095    0.54929    1.000
    O73      O        0.29561    0.68705    0.87195    1.000
    O74      O        0.38161    0.58905    0.95071    1.000
    O75      O        0.18705    0.79561    0.14539    1.000
    O76      O        0.08905    0.88161    0.07863    1.000
    O77      O        0.64539    0.87195    0.68705    1.000
    O78      O        0.57863    0.95071    0.58905    1.000
    O79      O        0.37195    0.14539    0.79561    1.000
    O80      O        0.45071    0.07863    0.88161    1.000
    O81      O        0.37195    0.68705    0.14539    1.000
    O82      O        0.45071    0.58905    0.07863    1.000
    O83      O        0.64539    0.79561    0.87195    1.000
    O84      O        0.57863    0.88161    0.95071    1.000
    O85      O        0.18705    0.87195    0.79561    1.000
    O86      O        0.08905    0.95071    0.88161    1.000
    O87      O        0.29561    0.14539    0.68705    1.000
    O88      O        0.38161    0.07863    0.58905    1.000
    O89      O        0.64539    0.68705    0.79561    1.000
    O90      O        0.57863    0.58905    0.88161    1.000
    O91      O        0.37195    0.79561    0.68705    1.000
    O92      O        0.45071    0.88161    0.58905    1.000
    O93      O        0.29561    0.87195    0.14539    1.000
    O94      O        0.38161    0.95071    0.07863    1.000
    O95      O        0.18705    0.14539    0.87195    1.000
    O96      O        0.08905    0.07863    0.95071    1.000
    O97      O        0.61964    0.38036    0.25000    1.000
    O98      O        0.88036    0.11964    0.75000    1.000
    O99      O        0.75000    0.75000    0.11964    1.000
    O100     O        0.25000    0.25000    0.38036    1.000
    O101     O        0.61964    0.25000    0.75000    1.000
    O102     O        0.88036    0.75000    0.25000    1.000
    O103     O        0.75000    0.11964    0.38036    1.000
    O104     O        0.25000    0.38036    0.11964    1.000
    O105     O        0.61964    0.75000    0.38036    1.000
    O106     O        0.88036    0.25000    0.11964    1.000
    O107     O        0.75000    0.38036    0.75000    1.000
    O108     O        0.25000    0.11964    0.25000    1.000
    O109     O        0.38036    0.61964    0.75000    1.000
    O110     O        0.11964    0.88036    0.25000    1.000
    O111     O        0.25000    0.25000    0.88036    1.000
    O112     O        0.75000    0.75000    0.61964    1.000
    O113     O        0.38036    0.75000    0.25000    1.000
    O114     O        0.11964    0.25000    0.75000    1.000
    O115     O        0.25000    0.88036    0.61964    1.000
    O116     O        0.75000    0.61964    0.88036    1.000
    O117     O        0.38036    0.25000    0.61964    1.000
    O118     O        0.11964    0.75000    0.88036    1.000
    O119     O        0.25000    0.61964    0.25000    1.000
    O120     O        0.75000    0.88036    0.75000    1.000
