# CIF file generated by openbabel 3.1.0, see https://openbabel.org
data_I
_chemical_name_common 'image0'
_cell_length_a 17.0774
_cell_length_b 12.5945
_cell_length_c 17.0774
_cell_angle_alpha 90.0219
_cell_angle_beta 90.0156
_cell_angle_gamma 90.0163
_space_group_name_H-M_alt 'P 1'
_space_group_name_Hall 'P 1'
loop_
    _symmetry_equiv_pos_as_xyz
    x,y,z
loop_
    _atom_site_label
    _atom_site_type_symbol
    _atom_site_fract_x
    _atom_site_fract_y
    _atom_site_fract_z
    _atom_site_occupancy
    Zn1      Zn       0.20006    0.57625    0.44387    1.000
    Zn2      Zn       0.19999    0.39825    0.31262    1.000
    Zn3      Zn       0.06880    0.57622    0.31262    1.000
    Zn4      Zn       0.06878    0.39831    0.44384    1.000
    O1       O        0.13441    0.48726    0.37824    1.000
    O2       O        0.30990    0.55263    0.42647    1.000
    O3       O        0.18257    0.42182    0.20277    1.000
    O4       O        0.08625    0.72517    0.33004    1.000
    O5       O        0.30985    0.42186    0.33004    1.000
    O6       O        0.18269    0.72519    0.42647    1.000
    O7       O        0.08619    0.55257    0.20277    1.000
    O8       O        0.95895    0.55263    0.33002    1.000
    O9       O        0.08621    0.42196    0.55369    1.000
    O10      O        0.95893    0.42192    0.42642    1.000
    O11      O        0.18267    0.55269    0.55371    1.000
    O12      O        0.18255    0.24932    0.33001    1.000
    O13      O        0.08614    0.24936    0.42642    1.000
    C1       C        0.93046    0.48728    0.37822    1.000
    C2       C        0.84321    0.48726    0.37823    1.000
    C3       C        0.80223    0.41910    0.42834    1.000
    C4       C        0.72025    0.41910    0.42836    1.000
    C5       C        0.67925    0.48725    0.37825    1.000
    C6       C        0.72024    0.55542    0.32812    1.000
    C7       C        0.80222    0.55543    0.32812    1.000
    C8       C        0.54937    0.55540    0.32814    1.000
    C9       C        0.46738    0.55539    0.32815    1.000
    C10      C        0.46740    0.41907    0.42838    1.000
    C11      C        0.54938    0.41908    0.42838    1.000
    C12      C        0.59036    0.48724    0.37825    1.000
    C13      C        0.13436    0.21072    0.37823    1.000
    C14      C        0.13441    0.09241    0.37825    1.000
    C15      C        0.08197    0.02315    0.43065    1.000
    C16      C        0.06285    0.95229    0.35903    1.000
    C17      C        0.15360    0.95247    0.44989    1.000
    C18      C        0.11525    0.02311    0.30659    1.000
    C19      C        0.20603    0.02330    0.39750    1.000
    C20      C        0.18694    0.95248    0.32583    1.000
    C21      C        0.33915    0.48724    0.37826    1.000
    C22      C        0.42640    0.48723    0.37827    1.000
    C23      C        0.13444    0.48733    0.58298    1.000
    C24      C        0.13446    0.48736    0.67023    1.000
    C25      C        0.13448    0.76488    0.37826    1.000
    C26      C        0.13451    0.88319    0.37827    1.000
    C27      C        0.13442    0.48726    0.17429    1.000
    C28      C        0.13456    0.48753    0.08704    1.000
    C29      C        0.18477    0.55558    0.04606    1.000
    C30      C        0.18475    0.55554    0.96408    1.000
    C31      C        0.13452    0.48746    0.92308    1.000
    C32      C        0.08431    0.41941    0.96407    1.000
    C33      C        0.08433    0.41944    0.04605    1.000
    C34      C        0.08427    0.41935    0.79320    1.000
    C35      C        0.08425    0.41932    0.71121    1.000
    C36      C        0.18469    0.55545    0.71123    1.000
    C37      C        0.18471    0.55548    0.79321    1.000
    C38      C        0.13450    0.48743    0.83419    1.000
    H1       H        0.43400    0.61090    0.28735    1.000
    H2       H        0.00233    0.92107    0.34276    1.000
    H3       H        0.83558    0.61094    0.28731    1.000
    H4       H        0.04342    0.36398    0.93068    1.000
    H5       H        0.03754    0.05417    0.47490    1.000
    H6       H        0.09899    0.05401    0.24599    1.000
    H7       H        0.23133    0.92165    0.28147    1.000
    O14      O        0.58905    0.62164    0.27937    1.000
    C39      C        0.53529    0.68181    0.23516    1.000
    H8       H        0.47684    0.63822    0.23240    1.000
    H9       H        0.52660    0.76260    0.26399    1.000
    C40      C        0.63904    0.75082    0.15501    1.000
    C41      C        0.56725    0.69728    0.15162    1.000
    H10      H        0.65876    0.76037    0.10348    1.000
    H11      H        0.67526    0.71029    0.18480    1.000
    H12      H        0.63179    0.81814    0.17905    1.000
    H13      H        0.57451    0.62995    0.12759    1.000
    H14      H        0.53103    0.73780    0.12182    1.000
    O15      O        0.27819    0.06050    0.41708    1.000
    C42      C        0.29816    0.02456    0.49267    1.000
    H15      H        0.24252    0.00462    0.52649    1.000
    H16      H        0.33628    0.95056    0.48776    1.000
    C43      C        0.41195    0.13665    0.49467    1.000
    C44      C        0.34362    0.11218    0.53620    1.000
    H17      H        0.44000    0.19069    0.52152    1.000
    H18      H        0.39851    0.16086    0.44374    1.000
    H19      H        0.44371    0.07498    0.49058    1.000
    H20      H        0.31185    0.17384    0.54028    1.000
    H21      H        0.35706    0.08797    0.58713    1.000
    O16      O        0.23353    0.62147    0.83312    1.000
    C45      C        0.28424    0.56088    0.88053    1.000
    H22      H        0.25654    0.48022    0.89280    1.000
    H23      H        0.34241    0.54918    0.84895    1.000
    C46      C        0.33249    0.71853    0.94335    1.000
    C47      C        0.29847    0.61947    0.95842    1.000
    H24      H        0.34128    0.75467    0.99139    1.000
    H25      H        0.29834    0.75935    0.91141    1.000
    H26      H        0.38096    0.70876    0.91702    1.000
    H27      H        0.25000    0.62924    0.98473    1.000
    H28      H        0.33262    0.57865    0.99037    1.000
    H29      H        0.16979    0.92144    0.51047    1.000
    H30      H        0.22557    0.61086    0.67786    1.000
    O17      O        0.23345    0.62183    0.08592    1.000
    C48      C        0.18879    0.69058    0.13335    1.000
    H31      H        0.12696    0.69716    0.10865    1.000
    H32      H        0.18610    0.65770    0.19548    1.000
    C49      C        0.30312    0.79315    0.16496    1.000
    C50      C        0.22718    0.80123    0.13461    1.000
    H33      H        0.32679    0.86140    0.16574    1.000
    H34      H        0.33320    0.74683    0.13300    1.000
    H35      H        0.30086    0.76575    0.21673    1.000
    H36      H        0.22944    0.82862    0.08284    1.000
    H37      H        0.19709    0.84756    0.16656    1.000
    H38      H        0.22564    0.61095    0.93072    1.000
    O18      O        0.84214    0.35304    0.47706    1.000
    C51      C        0.88958    0.41356    0.52785    1.000
    H39      H        0.90186    0.49427    0.50026    1.000
    H40      H        0.85800    0.42515    0.58603    1.000
    C52      C        0.95235    0.25585    0.57587    1.000
    C53      C        0.96745    0.35497    0.54198    1.000
    H41      H        0.00039    0.21971    0.58459    1.000
    H42      H        0.92039    0.21508    0.54166    1.000
    H43      H        0.92604    0.26552    0.62435    1.000
    H44      H        0.99375    0.34530    0.49349    1.000
    H45      H        0.99941    0.39574    0.57618    1.000
    O19      O        0.03542    0.35321    0.83289    1.000
    C54      C        0.99109    0.29310    0.77912    1.000
    H46      H        0.98837    0.33667    0.72069    1.000
    H47      H        0.01981    0.21225    0.77040    1.000
    C55      C        0.91089    0.22427    0.88289    1.000
    C56      C        0.90754    0.27779    0.81112    1.000
    H48      H        0.85935    0.21483    0.90262    1.000
    H49      H        0.94075    0.26477    0.91911    1.000
    H50      H        0.93482    0.15691    0.87561    1.000
    H51      H        0.88362    0.34516    0.81840    1.000
    H52      H        0.87767    0.23731    0.77490    1.000
    H53      H        0.43403    0.36357    0.46920    1.000
    O20      O        0.68035    0.35283    0.47693    1.000
    C57      C        0.63292    0.28415    0.43215    1.000
    H54      H        0.62063    0.32180    0.37271    1.000
    H55      H        0.66449    0.20529    0.42342    1.000
    C58      C        0.57016    0.21855    0.54832    1.000
    C59      C        0.55505    0.26480    0.47532    1.000
    H56      H        0.52213    0.20661    0.57495    1.000
    H57      H        0.60212    0.26482    0.57849    1.000
    H58      H        0.59647    0.15284    0.54104    1.000
    H59      H        0.52875    0.33052    0.48261    1.000
    H60      H        0.52309    0.21855    0.44515    1.000
    O21      O        0.58917    0.35299    0.47717    1.000
    C60      C        0.56916    0.37609    0.55543    1.000
    H61      H        0.54664    0.46111    0.55950    1.000
    H62      H        0.52158    0.31898    0.57589    1.000
    C61      C        0.66967    0.25920    0.60279    1.000
    C62      C        0.64201    0.36362    0.60780    1.000
    H63      H        0.71460    0.25150    0.63510    1.000
    H64      H        0.68315    0.24363    0.55007    1.000
    H65      H        0.63001    0.21162    0.61984    1.000
    H66      H        0.68167    0.41120    0.59074    1.000
    H67      H        0.62854    0.37920    0.66052    1.000
    O22      O        0.03548    0.35331    0.08574    1.000
    C63      C        0.99116    0.29320    0.03197    1.000
    H68      H        0.98843    0.33677    0.97354    1.000
    H69      H        0.01988    0.21235    0.02325    1.000
    C64      C        0.91096    0.22436    0.13574    1.000
    C65      C        0.90761    0.27788    0.06397    1.000
    H70      H        0.85943    0.21491    0.15547    1.000
    H71      H        0.94083    0.26486    0.17196    1.000
    H72      H        0.93490    0.15699    0.12846    1.000
    H73      H        0.88368    0.34525    0.07125    1.000
    H74      H        0.87774    0.23740    0.02775    1.000
    H75      H        0.68685    0.61092    0.28733    1.000
    H76      H        0.04333    0.36391    0.67783    1.000
