# CIF file generated by openbabel 3.1.0, see https://openbabel.org
data_I
_chemical_name_common 'image0'
_cell_length_a 10.8093
_cell_length_b 14.3476
_cell_length_c 10.8243
_cell_angle_alpha 90
_cell_angle_beta 103.559
_cell_angle_gamma 90
_space_group_name_H-M_alt 'P 1'
_space_group_name_Hall 'P 1'
loop_
    _symmetry_equiv_pos_as_xyz
    x,y,z
loop_
    _atom_site_label
    _atom_site_type_symbol
    _atom_site_fract_x
    _atom_site_fract_y
    _atom_site_fract_z
    _atom_site_occupancy
    C1       C        0.62580    0.09061    0.05980    1.000
    H1       H        0.68900    0.04330    0.07350    1.000
    C2       C        0.13290    0.74734    0.42110    1.000
    H2       H        0.07240    0.79650    0.40720    1.000
    C3       C        0.12240    0.67836    0.50710    1.000
    H3       H        0.05490    0.68000    0.54960    1.000
    Li1      Li       0.46960    0.48260    0.74430    1.000
    O1       O        0.96551    0.37736    0.84329    1.000
    C4       C        0.04375    0.24561    0.97073    1.000
    N1       N        0.73495    0.75282    0.38151    1.000
    N2       N        0.02517    0.10256    0.14140    1.000
    O2       O        0.78777    0.47123    0.66526    1.000
    C5       C        0.05868    0.32398    0.88080    1.000
    C6       C        0.71116    0.60559    0.54370    1.000
    C7       C        0.11570    0.16487    0.97660    1.000
    H4       H        0.17310    0.15720    0.92300    1.000
    C8       C        0.10230    0.09565    0.06200    1.000
    H5       H        0.15090    0.04020    0.06400    1.000
    C9       C        0.96100    0.25298    0.05092    1.000
    H6       H        0.90860    0.30650    0.04830    1.000
    C10      C        0.69440    0.52548    0.62875    1.000
    O3       O        0.09235    0.52098    0.64832    1.000
    O4       O        0.66880    0.33885    0.87327    1.000
    C11      C        0.65770    0.75890    0.46230    1.000
    H7       H        0.61190    0.81510    0.46440    1.000
    O5       O        0.29066    0.47426    0.65723    1.000
    O6       O        0.16300    0.32892    0.85167    1.000
    C12      C        0.19660    0.52801    0.61990    1.000
    C13      C        0.95620    0.18083    0.13482    1.000
    H8       H        0.90090    0.18720    0.19080    1.000
    O7       O        0.45904    0.36166    0.82628    1.000
    C14      C        0.80020    0.67363    0.38230    1.000
    H9       H        0.85390    0.66780    0.32470    1.000
    C15      C        0.79350    0.59936    0.46290    1.000
    H10      H        0.84430    0.54530    0.46270    1.000
    N3       N        0.22483    0.74822    0.35595    1.000
    C16      C        0.64200    0.68707    0.54240    1.000
    H11      H        0.58430    0.69350    0.59600    1.000
    O8       O        0.58918    0.51864    0.65581    1.000
    Li2      Li       0.27360    0.35830    0.74790    1.000
    C17      C        0.63660    0.16353    0.97885    1.000
    H12      H        0.70660    0.16640    0.93970    1.000
    C18      C        0.21090    0.60691    0.53117    1.000
    Li3      Li       0.97200    0.48950    0.73920    1.000
    C19      C        0.31060    0.67917    0.38050    1.000
    H13      H        0.37640    0.67870    0.33570    1.000
    N4       N        0.53102    0.08346    0.11969    1.000
    C20      C        0.55717    0.31735    0.87747    1.000
    C21      C        0.44100    0.14950    0.09520    1.000
    H14      H        0.37260    0.14530    0.13630    1.000
    C22      C        0.54350    0.23236    0.95591    1.000
    C23      C        0.30890    0.60828    0.46730    1.000
    H15      H        0.37320    0.56170    0.48290    1.000
    Li4      Li       0.78200    0.36010    0.76590    1.000
    C24      C        0.44200    0.22374    0.01360    1.000
    H16      H        0.37460    0.26790    0.99740    1.000
    C25      C        0.37420    0.59061    0.94020    1.000
    H17      H        0.31100    0.54330    0.92650    1.000
    C26      C        0.86710    0.24734    0.57890    1.000
    H18      H        0.92760    0.29650    0.59280    1.000
    C27      C        0.87760    0.17836    0.49290    1.000
    H19      H        0.94510    0.18000    0.45040    1.000
    Li5      Li       0.53040    0.98260    0.25570    1.000
    O9       O        0.03449    0.87736    0.15671    1.000
    C28      C        0.95625    0.74561    0.02927    1.000
    N5       N        0.26505    0.25282    0.61849    1.000
    N6       N        0.97483    0.60256    0.85860    1.000
    O10      O        0.21223    0.97123    0.33474    1.000
    C29      C        0.94132    0.82398    0.11920    1.000
    C30      C        0.28884    0.10559    0.45630    1.000
    C31      C        0.88430    0.66487    0.02340    1.000
    H20      H        0.82690    0.65720    0.07700    1.000
    C32      C        0.89770    0.59565    0.93800    1.000
    H21      H        0.84910    0.54020    0.93600    1.000
    C33      C        0.03900    0.75298    0.94908    1.000
    H22      H        0.09140    0.80650    0.95170    1.000
    C34      C        0.30560    0.02548    0.37125    1.000
    O11      O        0.90765    0.02098    0.35168    1.000
    O12      O        0.33120    0.83885    0.12673    1.000
    C35      C        0.34230    0.25890    0.53770    1.000
    H23      H        0.38810    0.31510    0.53560    1.000
    O13      O        0.70934    0.97426    0.34277    1.000
    O14      O        0.83700    0.82892    0.14833    1.000
    C36      C        0.80340    0.02801    0.38010    1.000
    C37      C        0.04380    0.68083    0.86518    1.000
    H24      H        0.09910    0.68720    0.80920    1.000
    O15      O        0.54096    0.86166    0.17372    1.000
    C38      C        0.19980    0.17363    0.61770    1.000
    H25      H        0.14610    0.16780    0.67530    1.000
    C39      C        0.20650    0.09936    0.53710    1.000
    H26      H        0.15570    0.04530    0.53730    1.000
    N7       N        0.77517    0.24822    0.64405    1.000
    C40      C        0.35800    0.18707    0.45760    1.000
    H27      H        0.41570    0.19350    0.40400    1.000
    O16      O        0.41082    0.01864    0.34419    1.000
    Li6      Li       0.72640    0.85830    0.25210    1.000
    C41      C        0.36340    0.66353    0.02115    1.000
    H28      H        0.29340    0.66640    0.06030    1.000
    C42      C        0.78910    0.10691    0.46883    1.000
    Li7      Li       0.02800    0.98950    0.26080    1.000
    C43      C        0.68940    0.17917    0.61950    1.000
    H29      H        0.62360    0.17870    0.66430    1.000
    N8       N        0.46898    0.58346    0.88031    1.000
    C44      C        0.44283    0.81735    0.12253    1.000
    C45      C        0.55900    0.64950    0.90480    1.000
    H30      H        0.62740    0.64530    0.86370    1.000
    C46      C        0.45650    0.73236    0.04409    1.000
    C47      C        0.69110    0.10828    0.53270    1.000
    H31      H        0.62680    0.06170    0.51710    1.000
    Li8      Li       0.21800    0.86010    0.23410    1.000
    C48      C        0.55800    0.72374    0.98640    1.000
    H32      H        0.62540    0.76790    0.00260    1.000
