# CIF file generated by openbabel 3.1.0, see https://openbabel.org
data_I
_chemical_name_common 'image0'
_cell_length_a 25.297
_cell_length_b 4.8861
_cell_length_c 24.268
_cell_angle_alpha 90
_cell_angle_beta 118.285
_cell_angle_gamma 90
_space_group_name_H-M_alt 'P 1'
_space_group_name_Hall 'P 1'
loop_
    _symmetry_equiv_pos_as_xyz
    x,y,z
loop_
    _atom_site_label
    _atom_site_type_symbol
    _atom_site_fract_x
    _atom_site_fract_y
    _atom_site_fract_z
    _atom_site_occupancy
    Be1      Be       0.18225    0.32400    0.74803    1.000
    Be2      Be       0.05909    0.33980    0.84070    1.000
    Be3      Be       0.26266    0.48310    0.07207    1.000
    P1       P        0.23952    0.83772    0.81549    1.000
    P2       P        0.06601    0.51133    0.72543    1.000
    P3       P        0.17740    0.52270    0.93460    1.000
    O1       O        0.21750    0.53390    0.81191    1.000
    O2       O        0.26617    0.93040    0.88371    1.000
    O3       O        0.28771    0.85390    0.79629    1.000
    O4       O        0.18500    0.01330    0.77367    1.000
    O5       O        0.11361    0.41570    0.70884    1.000
    O6       O        0.06912    0.83320    0.73025    1.000
    H1       H        0.10420    0.88280    0.74500    1.000
    O7       O        0.00388    0.46190    0.67146    1.000
    O8       O        0.07575    0.39370    0.78611    1.000
    O9       O        0.11163    0.45010    0.90621    1.000
    O10      O        0.20735    0.45920    0.00346    1.000
    O11      O        0.20933    0.34060    0.90469    1.000
    O12      O        0.18362    0.82090    0.92030    1.000
    O13      O        0.05656    0.00610    0.85164    1.000
    H2       H        0.05390    0.97960    0.88360    1.000
    Be4      Be       0.68225    0.82400    0.74803    1.000
    Be5      Be       0.55909    0.83980    0.84070    1.000
    Be6      Be       0.76266    0.98310    0.07207    1.000
    P4       P        0.73952    0.33772    0.81549    1.000
    P5       P        0.56601    0.01133    0.72543    1.000
    P6       P        0.67740    0.02270    0.93460    1.000
    O14      O        0.71750    0.03390    0.81191    1.000
    O15      O        0.76617    0.43040    0.88371    1.000
    O16      O        0.78771    0.35390    0.79629    1.000
    O17      O        0.68500    0.51330    0.77367    1.000
    O18      O        0.61361    0.91570    0.70884    1.000
    O19      O        0.56912    0.33320    0.73025    1.000
    H3       H        0.60420    0.38280    0.74500    1.000
    O20      O        0.50388    0.96190    0.67146    1.000
    O21      O        0.57575    0.89370    0.78611    1.000
    O22      O        0.61163    0.95010    0.90621    1.000
    O23      O        0.70735    0.95920    0.00346    1.000
    O24      O        0.70933    0.84060    0.90469    1.000
    O25      O        0.68362    0.32090    0.92030    1.000
    O26      O        0.55656    0.50610    0.85164    1.000
    H4       H        0.55390    0.47960    0.88360    1.000
    Be7      Be       0.81775    0.32400    0.75197    1.000
    Be8      Be       0.94091    0.33980    0.65930    1.000
    Be9      Be       0.73734    0.48310    0.42793    1.000
    P7       P        0.76048    0.83772    0.68451    1.000
    P8       P        0.93399    0.51133    0.77457    1.000
    P9       P        0.82260    0.52270    0.56540    1.000
    O27      O        0.78250    0.53390    0.68809    1.000
    O28      O        0.73383    0.93040    0.61629    1.000
    O29      O        0.71229    0.85390    0.70371    1.000
    O30      O        0.81500    0.01330    0.72633    1.000
    O31      O        0.88639    0.41570    0.79116    1.000
    O32      O        0.93088    0.83320    0.76975    1.000
    H5       H        0.89580    0.88280    0.75500    1.000
    O33      O        0.99612    0.46190    0.82854    1.000
    O34      O        0.92425    0.39370    0.71389    1.000
    O35      O        0.88837    0.45010    0.59379    1.000
    O36      O        0.79265    0.45920    0.49654    1.000
    O37      O        0.79067    0.34060    0.59531    1.000
    O38      O        0.81638    0.82090    0.57970    1.000
    O39      O        0.94344    0.00610    0.64836    1.000
    H6       H        0.94610    0.97960    0.61640    1.000
    Be10     Be       0.31775    0.82400    0.75197    1.000
    Be11     Be       0.44091    0.83980    0.65930    1.000
    Be12     Be       0.23734    0.98310    0.42793    1.000
    P10      P        0.26048    0.33772    0.68451    1.000
    P11      P        0.43399    0.01133    0.77457    1.000
    P12      P        0.32260    0.02270    0.56540    1.000
    O40      O        0.28250    0.03390    0.68809    1.000
    O41      O        0.23383    0.43040    0.61629    1.000
    O42      O        0.21229    0.35390    0.70371    1.000
    O43      O        0.31500    0.51330    0.72633    1.000
    O44      O        0.38639    0.91570    0.79116    1.000
    O45      O        0.43088    0.33320    0.76975    1.000
    H7       H        0.39580    0.38280    0.75500    1.000
    O46      O        0.49612    0.96190    0.82854    1.000
    O47      O        0.42425    0.89370    0.71389    1.000
    O48      O        0.38837    0.95010    0.59379    1.000
    O49      O        0.29265    0.95920    0.49654    1.000
    O50      O        0.29067    0.84060    0.59531    1.000
    O51      O        0.31638    0.32090    0.57970    1.000
    O52      O        0.44344    0.50610    0.64836    1.000
    H8       H        0.44610    0.47960    0.61640    1.000
    Be13     Be       0.81775    0.67600    0.25197    1.000
    Be14     Be       0.94091    0.66020    0.15930    1.000
    Be15     Be       0.73734    0.51690    0.92793    1.000
    P13      P        0.76048    0.16228    0.18451    1.000
    P14      P        0.93399    0.48867    0.27457    1.000
    P15      P        0.82260    0.47730    0.06540    1.000
    O53      O        0.78250    0.46610    0.18809    1.000
    O54      O        0.73383    0.06960    0.11629    1.000
    O55      O        0.71229    0.14610    0.20371    1.000
    O56      O        0.81500    0.98670    0.22633    1.000
    O57      O        0.88639    0.58430    0.29116    1.000
    O58      O        0.93088    0.16680    0.26975    1.000
    H9       H        0.89580    0.11720    0.25500    1.000
    O59      O        0.99612    0.53810    0.32854    1.000
    O60      O        0.92425    0.60630    0.21389    1.000
    O61      O        0.88837    0.54990    0.09379    1.000
    O62      O        0.79265    0.54080    0.99654    1.000
    O63      O        0.79067    0.65940    0.09531    1.000
    O64      O        0.81638    0.17910    0.07970    1.000
    O65      O        0.94344    0.99390    0.14836    1.000
    H10      H        0.94610    0.02040    0.11640    1.000
    Be16     Be       0.31775    0.17600    0.25197    1.000
    Be17     Be       0.44091    0.16020    0.15930    1.000
    Be18     Be       0.23734    0.01690    0.92793    1.000
    P16      P        0.26048    0.66228    0.18451    1.000
    P17      P        0.43399    0.98867    0.27457    1.000
    P18      P        0.32260    0.97730    0.06540    1.000
    O66      O        0.28250    0.96610    0.18809    1.000
    O67      O        0.23383    0.56960    0.11629    1.000
    O68      O        0.21229    0.64610    0.20371    1.000
    O69      O        0.31500    0.48670    0.22633    1.000
    O70      O        0.38639    0.08430    0.29116    1.000
    O71      O        0.43088    0.66680    0.26975    1.000
    H11      H        0.39580    0.61720    0.25500    1.000
    O72      O        0.49612    0.03810    0.32854    1.000
    O73      O        0.42425    0.10630    0.21389    1.000
    O74      O        0.38837    0.04990    0.09379    1.000
    O75      O        0.29265    0.04080    0.99654    1.000
    O76      O        0.29067    0.15940    0.09531    1.000
    O77      O        0.31638    0.67910    0.07970    1.000
    O78      O        0.44344    0.49390    0.14836    1.000
    H12      H        0.44610    0.52040    0.11640    1.000
    Be19     Be       0.18225    0.67600    0.24803    1.000
    Be20     Be       0.05909    0.66020    0.34070    1.000
    Be21     Be       0.26266    0.51690    0.57207    1.000
    P19      P        0.23952    0.16228    0.31549    1.000
    P20      P        0.06601    0.48867    0.22543    1.000
    P21      P        0.17740    0.47730    0.43460    1.000
    O79      O        0.21750    0.46610    0.31191    1.000
    O80      O        0.26617    0.06960    0.38371    1.000
    O81      O        0.28771    0.14610    0.29629    1.000
    O82      O        0.18500    0.98670    0.27367    1.000
    O83      O        0.11361    0.58430    0.20884    1.000
    O84      O        0.06912    0.16680    0.23025    1.000
    H13      H        0.10420    0.11720    0.24500    1.000
    O85      O        0.00388    0.53810    0.17146    1.000
    O86      O        0.07575    0.60630    0.28611    1.000
    O87      O        0.11163    0.54990    0.40621    1.000
    O88      O        0.20735    0.54080    0.50346    1.000
    O89      O        0.20933    0.65940    0.40469    1.000
    O90      O        0.18362    0.17910    0.42030    1.000
    O91      O        0.05656    0.99390    0.35164    1.000
    H14      H        0.05390    0.02040    0.38360    1.000
    Be22     Be       0.68225    0.17600    0.24803    1.000
    Be23     Be       0.55909    0.16020    0.34070    1.000
    Be24     Be       0.76266    0.01690    0.57207    1.000
    P22      P        0.73952    0.66228    0.31549    1.000
    P23      P        0.56601    0.98867    0.22543    1.000
    P24      P        0.67740    0.97730    0.43460    1.000
    O92      O        0.71750    0.96610    0.31191    1.000
    O93      O        0.76617    0.56960    0.38371    1.000
    O94      O        0.78771    0.64610    0.29629    1.000
    O95      O        0.68500    0.48670    0.27367    1.000
    O96      O        0.61361    0.08430    0.20884    1.000
    O97      O        0.56912    0.66680    0.23025    1.000
    H15      H        0.60420    0.61720    0.24500    1.000
    O98      O        0.50388    0.03810    0.17146    1.000
    O99      O        0.57575    0.10630    0.28611    1.000
    O100     O        0.61163    0.04990    0.40621    1.000
    O101     O        0.70735    0.04080    0.50346    1.000
    O102     O        0.70933    0.15940    0.40469    1.000
    O103     O        0.68362    0.67910    0.42030    1.000
    O104     O        0.55656    0.49390    0.35164    1.000
    H16      H        0.55390    0.52040    0.38360    1.000
