# CIF file generated by openbabel 3.1.0, see https://openbabel.org
data_I
_chemical_name_common 'image0'
_cell_length_a 25.366
_cell_length_b 6.0392
_cell_length_c 12.3195
_cell_angle_alpha 90
_cell_angle_beta 90
_cell_angle_gamma 90
_space_group_name_H-M_alt 'P 1'
_space_group_name_Hall 'P 1'
loop_
    _symmetry_equiv_pos_as_xyz
    x,y,z
loop_
    _atom_site_label
    _atom_site_type_symbol
    _atom_site_fract_x
    _atom_site_fract_y
    _atom_site_fract_z
    _atom_site_occupancy
    Cd1      Cd       0.37137    0.69971    0.86492    1.000
    C1       C        0.46030    0.77750    0.05020    1.000
    H1       H        0.46040    0.91700    0.01820    1.000
    C2       C        0.49970    0.72710    0.12210    1.000
    H2       H        0.52590    0.83040    0.13710    1.000
    C3       C        0.50060    0.52380    0.17220    1.000
    C4       C        0.45900    0.38400    0.15100    1.000
    H3       H        0.45680    0.24750    0.18560    1.000
    C5       C        0.42030    0.44890    0.07730    1.000
    H4       H        0.39200    0.35390    0.06560    1.000
    C6       C        0.54470    0.45170    0.24420    1.000
    C7       C        0.33310    0.98300    0.65620    1.000
    H5       H        0.36210    0.06780    0.67630    1.000
    C8       C        0.30030    0.06390    0.57710    1.000
    H6       H        0.30770    0.19920    0.54430    1.000
    C9       C        0.25720    0.94630    0.54660    1.000
    C10      C        0.24990    0.74160    0.59480    1.000
    H7       H        0.22180    0.65160    0.57480    1.000
    C11      C        0.28530    0.67340    0.67350    1.000
    H8       H        0.28000    0.53560    0.70540    1.000
    C12      C        0.21730    0.04110    0.46910    1.000
    O1       O        0.54797    0.25490    0.27070    1.000
    O2       O        0.57914    0.59320    0.27130    1.000
    O3       O        0.18659    0.91200    0.41870    1.000
    O4       O        0.21284    0.24570    0.46380    1.000
    N1       N        0.42145    0.63600    0.02340    1.000
    N2       N        0.32560    0.78960    0.70570    1.000
    Cd2      Cd       0.62863    0.30029    0.36492    1.000
    C13      C        0.53970    0.22250    0.55020    1.000
    H9       H        0.53960    0.08300    0.51820    1.000
    C14      C        0.50030    0.27290    0.62210    1.000
    H10      H        0.47410    0.16960    0.63710    1.000
    C15      C        0.49940    0.47620    0.67220    1.000
    C16      C        0.54100    0.61600    0.65100    1.000
    H11      H        0.54320    0.75250    0.68560    1.000
    C17      C        0.57970    0.55110    0.57730    1.000
    H12      H        0.60800    0.64610    0.56560    1.000
    C18      C        0.45530    0.54830    0.74420    1.000
    C19      C        0.66690    0.01700    0.15620    1.000
    H13      H        0.63790    0.93220    0.17630    1.000
    C20      C        0.69970    0.93610    0.07710    1.000
    H14      H        0.69230    0.80080    0.04430    1.000
    C21      C        0.74280    0.05370    0.04660    1.000
    C22      C        0.75010    0.25840    0.09480    1.000
    H15      H        0.77820    0.34840    0.07480    1.000
    C23      C        0.71470    0.32660    0.17350    1.000
    H16      H        0.72000    0.46440    0.20540    1.000
    C24      C        0.78270    0.95890    0.96910    1.000
    O5       O        0.45203    0.74510    0.77070    1.000
    O6       O        0.42086    0.40680    0.77130    1.000
    O7       O        0.81341    0.08800    0.91870    1.000
    O8       O        0.78716    0.75430    0.96380    1.000
    N3       N        0.57855    0.36400    0.52340    1.000
    N4       N        0.67440    0.21040    0.20570    1.000
    Cd3      Cd       0.87137    0.80029    0.86492    1.000
    C25      C        0.96030    0.72250    0.05020    1.000
    H17      H        0.96040    0.58300    0.01820    1.000
    C26      C        0.99970    0.77290    0.12210    1.000
    H18      H        0.02590    0.66960    0.13710    1.000
    C27      C        0.00060    0.97620    0.17220    1.000
    C28      C        0.95900    0.11600    0.15100    1.000
    H19      H        0.95680    0.25250    0.18560    1.000
    C29      C        0.92030    0.05110    0.07730    1.000
    H20      H        0.89200    0.14610    0.06560    1.000
    C30      C        0.04470    0.04830    0.24420    1.000
    C31      C        0.83310    0.51700    0.65620    1.000
    H21      H        0.86210    0.43220    0.67630    1.000
    C32      C        0.80030    0.43610    0.57710    1.000
    H22      H        0.80770    0.30080    0.54430    1.000
    C33      C        0.75720    0.55370    0.54660    1.000
    C34      C        0.74990    0.75840    0.59480    1.000
    H23      H        0.72180    0.84840    0.57480    1.000
    C35      C        0.78530    0.82660    0.67350    1.000
    H24      H        0.78000    0.96440    0.70540    1.000
    C36      C        0.71730    0.45890    0.46910    1.000
    O9       O        0.04797    0.24510    0.27070    1.000
    O10      O        0.07914    0.90680    0.27130    1.000
    O11      O        0.68659    0.58800    0.41870    1.000
    O12      O        0.71284    0.25430    0.46380    1.000
    N5       N        0.92145    0.86400    0.02340    1.000
    N6       N        0.82560    0.71040    0.70570    1.000
    Cd4      Cd       0.12863    0.19971    0.36492    1.000
    C37      C        0.03970    0.27750    0.55020    1.000
    H25      H        0.03960    0.41700    0.51820    1.000
    C38      C        0.00030    0.22710    0.62210    1.000
    H26      H        0.97410    0.33040    0.63710    1.000
    C39      C        0.99940    0.02380    0.67220    1.000
    C40      C        0.04100    0.88400    0.65100    1.000
    H27      H        0.04320    0.74750    0.68560    1.000
    C41      C        0.07970    0.94890    0.57730    1.000
    H28      H        0.10800    0.85390    0.56560    1.000
    C42      C        0.95530    0.95170    0.74420    1.000
    C43      C        0.16690    0.48300    0.15620    1.000
    H29      H        0.13790    0.56780    0.17630    1.000
    C44      C        0.19970    0.56390    0.07710    1.000
    H30      H        0.19230    0.69920    0.04430    1.000
    C45      C        0.24280    0.44630    0.04660    1.000
    C46      C        0.25010    0.24160    0.09480    1.000
    H31      H        0.27820    0.15160    0.07480    1.000
    C47      C        0.21470    0.17340    0.17350    1.000
    H32      H        0.22000    0.03560    0.20540    1.000
    C48      C        0.28270    0.54110    0.96910    1.000
    O13      O        0.95203    0.75490    0.77070    1.000
    O14      O        0.92086    0.09320    0.77130    1.000
    O15      O        0.31341    0.41200    0.91870    1.000
    O16      O        0.28716    0.74570    0.96380    1.000
    N7       N        0.07855    0.13600    0.52340    1.000
    N8       N        0.17440    0.28960    0.20570    1.000
