# CIF file generated by openbabel 3.1.0, see https://openbabel.org
data_I
_chemical_name_common 'image0'
_cell_length_a 26.306
_cell_length_b 19.939
_cell_length_c 26.336
_cell_angle_alpha 90
_cell_angle_beta 100.095
_cell_angle_gamma 90
_space_group_name_H-M_alt 'P 1'
_space_group_name_Hall 'P 1'
loop_
    _symmetry_equiv_pos_as_xyz
    x,y,z
loop_
    _atom_site_label
    _atom_site_type_symbol
    _atom_site_fract_x
    _atom_site_fract_y
    _atom_site_fract_z
    _atom_site_occupancy
    Zn1      Zn       0.09562    0.43164    0.84270    1.000
    Zn2      Zn       0.10569    0.18270    0.64130    1.000
    O1       O        0.35490    0.39840    0.86430    1.000
    O2       O        0.29550    0.31470    0.85880    1.000
    O3       O        0.00630    0.73570    0.88620    1.000
    O4       O        0.96630    0.64260    0.86280    1.000
    O5       O        0.10700    0.48920    0.73890    1.000
    O6       O        0.09740    0.39000    0.77300    1.000
    O7       O        0.10500    0.15600    0.39000    1.000
    O8       O        0.09730    0.07070    0.44230    1.000
    N1       N        0.17750    0.45300    0.85620    1.000
    C1       C        0.21880    0.40920    0.85730    1.000
    H1       H        0.21280    0.36240    0.85290    1.000
    C2       C        0.26900    0.43390    0.86460    1.000
    C3       C        0.27790    0.50240    0.87090    1.000
    H2       H        0.31220    0.51920    0.87590    1.000
    C4       C        0.23660    0.54610    0.86990    1.000
    H3       H        0.24270    0.59290    0.87420    1.000
    C5       C        0.18640    0.52150    0.86250    1.000
    N2       N        0.09750    0.53350    0.85560    1.000
    C6       C        0.14480    0.56590    0.86900    1.000
    C7       C        0.14640    0.63310    0.88320    1.000
    H4       H        0.17870    0.65520    0.89230    1.000
    C8       C        0.10080    0.66800    0.88400    1.000
    H5       H        0.10190    0.71390    0.89370    1.000
    C9       C        0.05350    0.63560    0.87060    1.000
    C10      C        0.05190    0.56840    0.85640    1.000
    H6       H        0.01960    0.54620    0.84730    1.000
    N3       N        0.10990    0.28300    0.64380    1.000
    C11      C        0.10590    0.31750    0.68880    1.000
    H7       H        0.10150    0.29350    0.71890    1.000
    C12      C        0.10830    0.38720    0.68980    1.000
    C13      C        0.11470    0.42230    0.64580    1.000
    H8       H        0.11630    0.46990    0.64640    1.000
    C14      C        0.11870    0.38780    0.60080    1.000
    H9       H        0.12300    0.41190    0.57070    1.000
    C15      C        0.11630    0.31820    0.59980    1.000
    N4       N        0.10510    0.20440    0.56350    1.000
    C16      C        0.10910    0.27260    0.55380    1.000
    C17      C        0.11020    0.29480    0.50400    1.000
    H10      H        0.11290    0.34140    0.49730    1.000
    C18      C        0.10730    0.24890    0.46390    1.000
    H11      H        0.10800    0.26400    0.42980    1.000
    C19      C        0.10330    0.18070    0.47360    1.000
    C20      C        0.10220    0.15850    0.52340    1.000
    H12      H        0.09950    0.11190    0.53010    1.000
    C21      C        0.30360    0.36800    0.85950    1.000
    C22      C        0.00650    0.68070    0.87790    1.000
    C23      C        0.10110    0.43050    0.73870    1.000
    C24      C        0.10350    0.12750    0.43340    1.000
    Zn3      Zn       0.59562    0.93164    0.34270    1.000
    Zn4      Zn       0.60569    0.68270    0.14130    1.000
    O9       O        0.85490    0.89840    0.36430    1.000
    O10      O        0.79550    0.81470    0.35880    1.000
    O11      O        0.50630    0.23570    0.38620    1.000
    O12      O        0.46630    0.14260    0.36280    1.000
    O13      O        0.60700    0.98920    0.23890    1.000
    O14      O        0.59740    0.89000    0.27300    1.000
    O15      O        0.60500    0.65600    0.89000    1.000
    O16      O        0.59730    0.57070    0.94230    1.000
    N5       N        0.67750    0.95300    0.35620    1.000
    C25      C        0.71880    0.90920    0.35730    1.000
    H13      H        0.71280    0.86240    0.35290    1.000
    C26      C        0.76900    0.93390    0.36460    1.000
    C27      C        0.77790    0.00240    0.37090    1.000
    H14      H        0.81220    0.01920    0.37590    1.000
    C28      C        0.73660    0.04610    0.36990    1.000
    H15      H        0.74270    0.09290    0.37420    1.000
    C29      C        0.68640    0.02150    0.36250    1.000
    N6       N        0.59750    0.03350    0.35560    1.000
    C30      C        0.64480    0.06590    0.36900    1.000
    C31      C        0.64640    0.13310    0.38320    1.000
    H16      H        0.67870    0.15520    0.39230    1.000
    C32      C        0.60080    0.16800    0.38400    1.000
    H17      H        0.60190    0.21390    0.39370    1.000
    C33      C        0.55350    0.13560    0.37060    1.000
    C34      C        0.55190    0.06840    0.35640    1.000
    H18      H        0.51960    0.04620    0.34730    1.000
    N7       N        0.60990    0.78300    0.14380    1.000
    C35      C        0.60590    0.81750    0.18880    1.000
    H19      H        0.60150    0.79350    0.21890    1.000
    C36      C        0.60830    0.88720    0.18980    1.000
    C37      C        0.61470    0.92230    0.14580    1.000
    H20      H        0.61630    0.96990    0.14640    1.000
    C38      C        0.61870    0.88780    0.10080    1.000
    H21      H        0.62300    0.91190    0.07070    1.000
    C39      C        0.61630    0.81820    0.09980    1.000
    N8       N        0.60510    0.70440    0.06350    1.000
    C40      C        0.60910    0.77260    0.05380    1.000
    C41      C        0.61020    0.79480    0.00400    1.000
    H22      H        0.61290    0.84140    0.99730    1.000
    C42      C        0.60730    0.74890    0.96390    1.000
    H23      H        0.60800    0.76400    0.92980    1.000
    C43      C        0.60330    0.68070    0.97360    1.000
    C44      C        0.60220    0.65850    0.02340    1.000
    H24      H        0.59950    0.61190    0.03010    1.000
    C45      C        0.80360    0.86800    0.35950    1.000
    C46      C        0.50650    0.18070    0.37790    1.000
    C47      C        0.60110    0.93050    0.23870    1.000
    C48      C        0.60350    0.62750    0.93340    1.000
    Zn5      Zn       0.40438    0.43164    0.15730    1.000
    Zn6      Zn       0.39431    0.18270    0.35870    1.000
    O17      O        0.14510    0.39840    0.13570    1.000
    O18      O        0.20450    0.31470    0.14120    1.000
    O19      O        0.49370    0.73570    0.11380    1.000
    O20      O        0.53370    0.64260    0.13720    1.000
    O21      O        0.39300    0.48920    0.26110    1.000
    O22      O        0.40260    0.39000    0.22700    1.000
    O23      O        0.39500    0.15600    0.61000    1.000
    O24      O        0.40270    0.07070    0.55770    1.000
    N9       N        0.32250    0.45300    0.14380    1.000
    C49      C        0.28120    0.40920    0.14270    1.000
    H25      H        0.28720    0.36240    0.14710    1.000
    C50      C        0.23100    0.43390    0.13540    1.000
    C51      C        0.22210    0.50240    0.12910    1.000
    H26      H        0.18780    0.51920    0.12410    1.000
    C52      C        0.26340    0.54610    0.13010    1.000
    H27      H        0.25730    0.59290    0.12580    1.000
    C53      C        0.31360    0.52150    0.13750    1.000
    N10      N        0.40250    0.53350    0.14440    1.000
    C54      C        0.35520    0.56590    0.13100    1.000
    C55      C        0.35360    0.63310    0.11680    1.000
    H28      H        0.32130    0.65520    0.10770    1.000
    C56      C        0.39920    0.66800    0.11600    1.000
    H29      H        0.39810    0.71390    0.10630    1.000
    C57      C        0.44650    0.63560    0.12940    1.000
    C58      C        0.44810    0.56840    0.14360    1.000
    H30      H        0.48040    0.54620    0.15270    1.000
    N11      N        0.39010    0.28300    0.35620    1.000
    C59      C        0.39410    0.31750    0.31120    1.000
    H31      H        0.39850    0.29350    0.28110    1.000
    C60      C        0.39170    0.38720    0.31020    1.000
    C61      C        0.38530    0.42230    0.35420    1.000
    H32      H        0.38370    0.46990    0.35360    1.000
    C62      C        0.38130    0.38780    0.39920    1.000
    H33      H        0.37700    0.41190    0.42930    1.000
    C63      C        0.38370    0.31820    0.40020    1.000
    N12      N        0.39490    0.20440    0.43650    1.000
    C64      C        0.39090    0.27260    0.44620    1.000
    C65      C        0.38980    0.29480    0.49600    1.000
    H34      H        0.38710    0.34140    0.50270    1.000
    C66      C        0.39270    0.24890    0.53610    1.000
    H35      H        0.39200    0.26400    0.57020    1.000
    C67      C        0.39670    0.18070    0.52640    1.000
    C68      C        0.39780    0.15850    0.47660    1.000
    H36      H        0.40050    0.11190    0.46990    1.000
    C69      C        0.19640    0.36800    0.14050    1.000
    C70      C        0.49350    0.68070    0.12210    1.000
    C71      C        0.39890    0.43050    0.26130    1.000
    C72      C        0.39650    0.12750    0.56660    1.000
    Zn7      Zn       0.90438    0.93164    0.65730    1.000
    Zn8      Zn       0.89431    0.68270    0.85870    1.000
    O25      O        0.64510    0.89840    0.63570    1.000
    O26      O        0.70450    0.81470    0.64120    1.000
    O27      O        0.99370    0.23570    0.61380    1.000
    O28      O        0.03370    0.14260    0.63720    1.000
    O29      O        0.89300    0.98920    0.76110    1.000
    O30      O        0.90260    0.89000    0.72700    1.000
    O31      O        0.89500    0.65600    0.11000    1.000
    O32      O        0.90270    0.57070    0.05770    1.000
    N13      N        0.82250    0.95300    0.64380    1.000
    C73      C        0.78120    0.90920    0.64270    1.000
    H37      H        0.78720    0.86240    0.64710    1.000
    C74      C        0.73100    0.93390    0.63540    1.000
    C75      C        0.72210    0.00240    0.62910    1.000
    H38      H        0.68780    0.01920    0.62410    1.000
    C76      C        0.76340    0.04610    0.63010    1.000
    H39      H        0.75730    0.09290    0.62580    1.000
    C77      C        0.81360    0.02150    0.63750    1.000
    N14      N        0.90250    0.03350    0.64440    1.000
    C78      C        0.85520    0.06590    0.63100    1.000
    C79      C        0.85360    0.13310    0.61680    1.000
    H40      H        0.82130    0.15520    0.60770    1.000
    C80      C        0.89920    0.16800    0.61600    1.000
    H41      H        0.89810    0.21390    0.60630    1.000
    C81      C        0.94650    0.13560    0.62940    1.000
    C82      C        0.94810    0.06840    0.64360    1.000
    H42      H        0.98040    0.04620    0.65270    1.000
    N15      N        0.89010    0.78300    0.85620    1.000
    C83      C        0.89410    0.81750    0.81120    1.000
    H43      H        0.89850    0.79350    0.78110    1.000
    C84      C        0.89170    0.88720    0.81020    1.000
    C85      C        0.88530    0.92230    0.85420    1.000
    H44      H        0.88370    0.96990    0.85360    1.000
    C86      C        0.88130    0.88780    0.89920    1.000
    H45      H        0.87700    0.91190    0.92930    1.000
    C87      C        0.88370    0.81820    0.90020    1.000
    N16      N        0.89490    0.70440    0.93650    1.000
    C88      C        0.89090    0.77260    0.94620    1.000
    C89      C        0.88980    0.79480    0.99600    1.000
    H46      H        0.88710    0.84140    0.00270    1.000
    C90      C        0.89270    0.74890    0.03610    1.000
    H47      H        0.89200    0.76400    0.07020    1.000
    C91      C        0.89670    0.68070    0.02640    1.000
    C92      C        0.89780    0.65850    0.97660    1.000
    H48      H        0.90050    0.61190    0.96990    1.000
    C93      C        0.69640    0.86800    0.64050    1.000
    C94      C        0.99350    0.18070    0.62210    1.000
    C95      C        0.89890    0.93050    0.76130    1.000
    C96      C        0.89650    0.62750    0.06660    1.000
    Zn9      Zn       0.90438    0.56836    0.15730    1.000
    Zn10     Zn       0.89431    0.81730    0.35870    1.000
    O33      O        0.64510    0.60160    0.13570    1.000
    O34      O        0.70450    0.68530    0.14120    1.000
    O35      O        0.99370    0.26430    0.11380    1.000
    O36      O        0.03370    0.35740    0.13720    1.000
    O37      O        0.89300    0.51080    0.26110    1.000
    O38      O        0.90260    0.61000    0.22700    1.000
    O39      O        0.89500    0.84400    0.61000    1.000
    O40      O        0.90270    0.92930    0.55770    1.000
    N17      N        0.82250    0.54700    0.14380    1.000
    C97      C        0.78120    0.59080    0.14270    1.000
    H49      H        0.78720    0.63760    0.14710    1.000
    C98      C        0.73100    0.56610    0.13540    1.000
    C99      C        0.72210    0.49760    0.12910    1.000
    H50      H        0.68780    0.48080    0.12410    1.000
    C100     C        0.76340    0.45390    0.13010    1.000
    H51      H        0.75730    0.40710    0.12580    1.000
    C101     C        0.81360    0.47850    0.13750    1.000
    N18      N        0.90250    0.46650    0.14440    1.000
    C102     C        0.85520    0.43410    0.13100    1.000
    C103     C        0.85360    0.36690    0.11680    1.000
    H52      H        0.82130    0.34480    0.10770    1.000
    C104     C        0.89920    0.33200    0.11600    1.000
    H53      H        0.89810    0.28610    0.10630    1.000
    C105     C        0.94650    0.36440    0.12940    1.000
    C106     C        0.94810    0.43160    0.14360    1.000
    H54      H        0.98040    0.45380    0.15270    1.000
    N19      N        0.89010    0.71700    0.35620    1.000
    C107     C        0.89410    0.68250    0.31120    1.000
    H55      H        0.89850    0.70650    0.28110    1.000
    C108     C        0.89170    0.61280    0.31020    1.000
    C109     C        0.88530    0.57770    0.35420    1.000
    H56      H        0.88370    0.53010    0.35360    1.000
    C110     C        0.88130    0.61220    0.39920    1.000
    H57      H        0.87700    0.58810    0.42930    1.000
    C111     C        0.88370    0.68180    0.40020    1.000
    N20      N        0.89490    0.79560    0.43650    1.000
    C112     C        0.89090    0.72740    0.44620    1.000
    C113     C        0.88980    0.70520    0.49600    1.000
    H58      H        0.88710    0.65860    0.50270    1.000
    C114     C        0.89270    0.75110    0.53610    1.000
    H59      H        0.89200    0.73600    0.57020    1.000
    C115     C        0.89670    0.81930    0.52640    1.000
    C116     C        0.89780    0.84150    0.47660    1.000
    H60      H        0.90050    0.88810    0.46990    1.000
    C117     C        0.69640    0.63200    0.14050    1.000
    C118     C        0.99350    0.31930    0.12210    1.000
    C119     C        0.89890    0.56950    0.26130    1.000
    C120     C        0.89650    0.87250    0.56660    1.000
    Zn11     Zn       0.40438    0.06836    0.65730    1.000
    Zn12     Zn       0.39431    0.31730    0.85870    1.000
    O41      O        0.14510    0.10160    0.63570    1.000
    O42      O        0.20450    0.18530    0.64120    1.000
    O43      O        0.49370    0.76430    0.61380    1.000
    O44      O        0.53370    0.85740    0.63720    1.000
    O45      O        0.39300    0.01080    0.76110    1.000
    O46      O        0.40260    0.11000    0.72700    1.000
    O47      O        0.39500    0.34400    0.11000    1.000
    O48      O        0.40270    0.42930    0.05770    1.000
    N21      N        0.32250    0.04700    0.64380    1.000
    C121     C        0.28120    0.09080    0.64270    1.000
    H61      H        0.28720    0.13760    0.64710    1.000
    C122     C        0.23100    0.06610    0.63540    1.000
    C123     C        0.22210    0.99760    0.62910    1.000
    H62      H        0.18780    0.98080    0.62410    1.000
    C124     C        0.26340    0.95390    0.63010    1.000
    H63      H        0.25730    0.90710    0.62580    1.000
    C125     C        0.31360    0.97850    0.63750    1.000
    N22      N        0.40250    0.96650    0.64440    1.000
    C126     C        0.35520    0.93410    0.63100    1.000
    C127     C        0.35360    0.86690    0.61680    1.000
    H64      H        0.32130    0.84480    0.60770    1.000
    C128     C        0.39920    0.83200    0.61600    1.000
    H65      H        0.39810    0.78610    0.60630    1.000
    C129     C        0.44650    0.86440    0.62940    1.000
    C130     C        0.44810    0.93160    0.64360    1.000
    H66      H        0.48040    0.95380    0.65270    1.000
    N23      N        0.39010    0.21700    0.85620    1.000
    C131     C        0.39410    0.18250    0.81120    1.000
    H67      H        0.39850    0.20650    0.78110    1.000
    C132     C        0.39170    0.11280    0.81020    1.000
    C133     C        0.38530    0.07770    0.85420    1.000
    H68      H        0.38370    0.03010    0.85360    1.000
    C134     C        0.38130    0.11220    0.89920    1.000
    H69      H        0.37700    0.08810    0.92930    1.000
    C135     C        0.38370    0.18180    0.90020    1.000
    N24      N        0.39490    0.29560    0.93650    1.000
    C136     C        0.39090    0.22740    0.94620    1.000
    C137     C        0.38980    0.20520    0.99600    1.000
    H70      H        0.38710    0.15860    0.00270    1.000
    C138     C        0.39270    0.25110    0.03610    1.000
    H71      H        0.39200    0.23600    0.07020    1.000
    C139     C        0.39670    0.31930    0.02640    1.000
    C140     C        0.39780    0.34150    0.97660    1.000
    H72      H        0.40050    0.38810    0.96990    1.000
    C141     C        0.19640    0.13200    0.64050    1.000
    C142     C        0.49350    0.81930    0.62210    1.000
    C143     C        0.39890    0.06950    0.76130    1.000
    C144     C        0.39650    0.37250    0.06660    1.000
    Zn13     Zn       0.59562    0.56836    0.84270    1.000
    Zn14     Zn       0.60569    0.81730    0.64130    1.000
    O49      O        0.85490    0.60160    0.86430    1.000
    O50      O        0.79550    0.68530    0.85880    1.000
    O51      O        0.50630    0.26430    0.88620    1.000
    O52      O        0.46630    0.35740    0.86280    1.000
    O53      O        0.60700    0.51080    0.73890    1.000
    O54      O        0.59740    0.61000    0.77300    1.000
    O55      O        0.60500    0.84400    0.39000    1.000
    O56      O        0.59730    0.92930    0.44230    1.000
    N25      N        0.67750    0.54700    0.85620    1.000
    C145     C        0.71880    0.59080    0.85730    1.000
    H73      H        0.71280    0.63760    0.85290    1.000
    C146     C        0.76900    0.56610    0.86460    1.000
    C147     C        0.77790    0.49760    0.87090    1.000
    H74      H        0.81220    0.48080    0.87590    1.000
    C148     C        0.73660    0.45390    0.86990    1.000
    H75      H        0.74270    0.40710    0.87420    1.000
    C149     C        0.68640    0.47850    0.86250    1.000
    N26      N        0.59750    0.46650    0.85560    1.000
    C150     C        0.64480    0.43410    0.86900    1.000
    C151     C        0.64640    0.36690    0.88320    1.000
    H76      H        0.67870    0.34480    0.89230    1.000
    C152     C        0.60080    0.33200    0.88400    1.000
    H77      H        0.60190    0.28610    0.89370    1.000
    C153     C        0.55350    0.36440    0.87060    1.000
    C154     C        0.55190    0.43160    0.85640    1.000
    H78      H        0.51960    0.45380    0.84730    1.000
    N27      N        0.60990    0.71700    0.64380    1.000
    C155     C        0.60590    0.68250    0.68880    1.000
    H79      H        0.60150    0.70650    0.71890    1.000
    C156     C        0.60830    0.61280    0.68980    1.000
    C157     C        0.61470    0.57770    0.64580    1.000
    H80      H        0.61630    0.53010    0.64640    1.000
    C158     C        0.61870    0.61220    0.60080    1.000
    H81      H        0.62300    0.58810    0.57070    1.000
    C159     C        0.61630    0.68180    0.59980    1.000
    N28      N        0.60510    0.79560    0.56350    1.000
    C160     C        0.60910    0.72740    0.55380    1.000
    C161     C        0.61020    0.70520    0.50400    1.000
    H82      H        0.61290    0.65860    0.49730    1.000
    C162     C        0.60730    0.75110    0.46390    1.000
    H83      H        0.60800    0.73600    0.42980    1.000
    C163     C        0.60330    0.81930    0.47360    1.000
    C164     C        0.60220    0.84150    0.52340    1.000
    H84      H        0.59950    0.88810    0.53010    1.000
    C165     C        0.80360    0.63200    0.85950    1.000
    C166     C        0.50650    0.31930    0.87790    1.000
    C167     C        0.60110    0.56950    0.73870    1.000
    C168     C        0.60350    0.87250    0.43340    1.000
    Zn15     Zn       0.09562    0.06836    0.34270    1.000
    Zn16     Zn       0.10569    0.31730    0.14130    1.000
    O57      O        0.35490    0.10160    0.36430    1.000
    O58      O        0.29550    0.18530    0.35880    1.000
    O59      O        0.00630    0.76430    0.38620    1.000
    O60      O        0.96630    0.85740    0.36280    1.000
    O61      O        0.10700    0.01080    0.23890    1.000
    O62      O        0.09740    0.11000    0.27300    1.000
    O63      O        0.10500    0.34400    0.89000    1.000
    O64      O        0.09730    0.42930    0.94230    1.000
    N29      N        0.17750    0.04700    0.35620    1.000
    C169     C        0.21880    0.09080    0.35730    1.000
    H85      H        0.21280    0.13760    0.35290    1.000
    C170     C        0.26900    0.06610    0.36460    1.000
    C171     C        0.27790    0.99760    0.37090    1.000
    H86      H        0.31220    0.98080    0.37590    1.000
    C172     C        0.23660    0.95390    0.36990    1.000
    H87      H        0.24270    0.90710    0.37420    1.000
    C173     C        0.18640    0.97850    0.36250    1.000
    N30      N        0.09750    0.96650    0.35560    1.000
    C174     C        0.14480    0.93410    0.36900    1.000
    C175     C        0.14640    0.86690    0.38320    1.000
    H88      H        0.17870    0.84480    0.39230    1.000
    C176     C        0.10080    0.83200    0.38400    1.000
    H89      H        0.10190    0.78610    0.39370    1.000
    C177     C        0.05350    0.86440    0.37060    1.000
    C178     C        0.05190    0.93160    0.35640    1.000
    H90      H        0.01960    0.95380    0.34730    1.000
    N31      N        0.10990    0.21700    0.14380    1.000
    C179     C        0.10590    0.18250    0.18880    1.000
    H91      H        0.10150    0.20650    0.21890    1.000
    C180     C        0.10830    0.11280    0.18980    1.000
    C181     C        0.11470    0.07770    0.14580    1.000
    H92      H        0.11630    0.03010    0.14640    1.000
    C182     C        0.11870    0.11220    0.10080    1.000
    H93      H        0.12300    0.08810    0.07070    1.000
    C183     C        0.11630    0.18180    0.09980    1.000
    N32      N        0.10510    0.29560    0.06350    1.000
    C184     C        0.10910    0.22740    0.05380    1.000
    C185     C        0.11020    0.20520    0.00400    1.000
    H94      H        0.11290    0.15860    0.99730    1.000
    C186     C        0.10730    0.25110    0.96390    1.000
    H95      H        0.10800    0.23600    0.92980    1.000
    C187     C        0.10330    0.31930    0.97360    1.000
    C188     C        0.10220    0.34150    0.02340    1.000
    H96      H        0.09950    0.38810    0.03010    1.000
    C189     C        0.30360    0.13200    0.35950    1.000
    C190     C        0.00650    0.81930    0.37790    1.000
    C191     C        0.10110    0.06950    0.23870    1.000
    C192     C        0.10350    0.37250    0.93340    1.000
