# CIF file generated by openbabel 3.1.0, see https://openbabel.org
data_I
_chemical_name_common 'image0'
_cell_length_a 6.052
_cell_length_b 10.4994
_cell_length_c 13.4547
_cell_angle_alpha 71.63
_cell_angle_beta 89.254
_cell_angle_gamma 89.101
_space_group_name_H-M_alt 'P 1'
_space_group_name_Hall 'P 1'
loop_
    _symmetry_equiv_pos_as_xyz
    x,y,z
loop_
    _atom_site_label
    _atom_site_type_symbol
    _atom_site_fract_x
    _atom_site_fract_y
    _atom_site_fract_z
    _atom_site_occupancy
    Eu1      Eu       0.25043    0.65949    0.70707    1.000
    N1       N        0.08020    0.88500    0.57600    1.000
    N2       N        0.43330    0.55600    0.89660    1.000
    N3       N        0.09140    0.57300    0.55900    1.000
    O1       O        0.45080    0.76870    0.54640    1.000
    O2       O        0.06530    0.70190    0.85140    1.000
    O3       O        0.85170    0.64170    0.69950    1.000
    O4       O        0.55860    0.52760    0.67630    1.000
    C1       C        0.18650    0.93930    0.48520    1.000
    C2       C        0.89360    0.94610    0.59030    1.000
    C3       C        0.31740    0.57440    0.97590    1.000
    C4       C        0.61560    0.48120    0.92090    1.000
    C5       C        0.88350    0.52930    0.57460    1.000
    C6       C        0.20820    0.54370    0.48410    1.000
    C7       C        0.39860    0.86910    0.47070    1.000
    C8       C        0.11000    0.65980    0.94720    1.000
    C9       C        0.75280    0.56940    0.65710    1.000
    H1       H        0.81460    0.91130    0.65250    1.000
    H2       H        0.70050    0.46560    0.86770    1.000
    H3       H        0.35330    0.57270    0.47100    1.000
    O5       O        0.50510    0.91430    0.38820    1.000
    O6       O        0.99890    0.68200    0.01730    1.000
    Eu2      Eu       0.74957    0.34051    0.29293    1.000
    N4       N        0.91980    0.11500    0.42400    1.000
    N5       N        0.56670    0.44400    0.10340    1.000
    N6       N        0.90860    0.42700    0.44100    1.000
    O7       O        0.54920    0.23130    0.45360    1.000
    O8       O        0.93470    0.29810    0.14860    1.000
    O9       O        0.14830    0.35830    0.30050    1.000
    O10      O        0.44140    0.47240    0.32370    1.000
    C10      C        0.81350    0.06070    0.51480    1.000
    C11      C        0.10640    0.05390    0.40970    1.000
    C12      C        0.68260    0.42560    0.02410    1.000
    C13      C        0.38440    0.51880    0.07910    1.000
    C14      C        0.11650    0.47070    0.42540    1.000
    C15      C        0.79180    0.45630    0.51590    1.000
    C16      C        0.60140    0.13090    0.52930    1.000
    C17      C        0.89000    0.34020    0.05280    1.000
    C18      C        0.24720    0.43060    0.34290    1.000
    H4       H        0.18540    0.08870    0.34750    1.000
    H5       H        0.29950    0.53440    0.13230    1.000
    H6       H        0.64670    0.42730    0.52900    1.000
    O11      O        0.49490    0.08570    0.61180    1.000
    O12      O        0.00110    0.31800    0.98270    1.000
