# CIF file generated by openbabel 3.1.0, see https://openbabel.org
data_I
_chemical_name_common 'cg501279y_si_002_clean'
_cell_length_a 13.913
_cell_length_b 16.774
_cell_length_c 16.774
_cell_angle_alpha 120
_cell_angle_beta 90
_cell_angle_gamma 90
_space_group_name_H-M_alt 'P 1'
_space_group_name_Hall 'P 1'
loop_
    _symmetry_equiv_pos_as_xyz
    x,y,z
loop_
    _atom_site_label
    _atom_site_type_symbol
    _atom_site_fract_x
    _atom_site_fract_y
    _atom_site_fract_z
    _atom_site_occupancy
    Ni1      Ni       0.39567    0.66667    0.33334    1.000
    Ni2      Ni       0.89567    0.33333    0.66666    1.000
    Ni3      Ni       0.60433    0.33333    0.66666    1.000
    Ni4      Ni       0.10433    0.66667    0.33334    1.000
    H1       H        0.85560    0.57010    0.77100    1.000
    H2       H        0.91080    0.68060    0.68760    1.000
    H3       H        0.91080    0.00700    0.31940    1.000
    H4       H        0.63130    0.14640    0.87360    1.000
    H5       H        0.07850    0.42530    0.63840    1.000
    H6       H        0.58920    0.31240    0.31940    1.000
    H7       H        0.75000    0.58780    0.41220    1.000
    H8       H        0.85560    0.22900    0.79910    1.000
    H9       H        0.98300    0.78440    0.98810    1.000
    H10      H        0.38460    0.57630    0.51240    1.000
    H11      H        0.57850    0.78690    0.36160    1.000
    H12      H        0.14440    0.77100    0.20090    1.000
    H13      H        0.38460    0.48760    0.06390    1.000
    H14      H        0.11540    0.93610    0.51240    1.000
    H15      H        0.41080    0.68760    0.68060    1.000
    H16      H        0.92150    0.57470    0.36160    1.000
    H17      H        0.92150    0.78690    0.42530    1.000
    H18      H        0.41080    0.99300    0.31240    1.000
    H19      H        0.36870    0.85360    0.12640    1.000
    H20      H        0.13130    0.27280    0.12640    1.000
    H21      H        0.11540    0.57630    0.06390    1.000
    H22      H        0.75000    0.82440    0.41220    1.000
    H23      H        0.36870    0.27280    0.14640    1.000
    H24      H        0.07850    0.21310    0.57470    1.000
    H25      H        0.08920    0.99300    0.68060    1.000
    H26      H        0.35560    0.77100    0.57010    1.000
    H27      H        0.98300    0.20370    0.21560    1.000
    H28      H        0.57850    0.63840    0.42530    1.000
    H29      H        0.42150    0.21310    0.63840    1.000
    H30      H        0.88460    0.42370    0.93610    1.000
    H31      H        0.25000    0.17560    0.58780    1.000
    H32      H        0.86870    0.72720    0.87360    1.000
    H33      H        0.91080    0.31240    0.99300    1.000
    H34      H        0.42150    0.42530    0.78690    1.000
    H35      H        0.38460    0.93610    0.42370    1.000
    H36      H        0.51700    0.20370    0.98810    1.000
    H37      H        0.86870    0.14640    0.27280    1.000
    H38      H        0.64440    0.57010    0.79910    1.000
    H39      H        0.41080    0.31940    0.00700    1.000
    H40      H        0.25000    0.41220    0.82440    1.000
    H41      H        0.48300    0.98810    0.78440    1.000
    H42      H        0.92150    0.63840    0.21310    1.000
    H43      H        0.51700    0.01190    0.21560    1.000
    H44      H        0.57850    0.57470    0.21310    1.000
    H45      H        0.42150    0.36160    0.57470    1.000
    H46      H        0.64440    0.22900    0.42990    1.000
    H47      H        0.86870    0.12640    0.85360    1.000
    H48      H        0.08920    0.31940    0.31240    1.000
    H49      H        0.35560    0.42990    0.20090    1.000
    H50      H        0.63130    0.72720    0.85360    1.000
    H51      H        0.08920    0.68760    0.00700    1.000
    H52      H        0.13130    0.87360    0.14640    1.000
    H53      H        0.64440    0.20090    0.77100    1.000
    H54      H        0.14440    0.42990    0.22900    1.000
    H55      H        0.85560    0.20090    0.42990    1.000
    H56      H        0.01700    0.98810    0.20370    1.000
    H57      H        0.61540    0.42370    0.48760    1.000
    H58      H        0.51700    0.78440    0.79630    1.000
    H59      H        0.01700    0.79630    0.78440    1.000
    H60      H        0.48300    0.21560    0.20370    1.000
    H61      H        0.36870    0.87360    0.72720    1.000
    H62      H        0.58920    0.00700    0.68760    1.000
    H63      H        0.13130    0.85360    0.72720    1.000
    H64      H        0.25000    0.41220    0.58780    1.000
    H65      H        0.48300    0.79630    0.01190    1.000
    H66      H        0.61540    0.06390    0.57630    1.000
    H67      H        0.07850    0.36160    0.78690    1.000
    H68      H        0.01700    0.21560    0.01190    1.000
    H69      H        0.88460    0.51240    0.57630    1.000
    H70      H        0.75000    0.58780    0.17560    1.000
    H71      H        0.98300    0.01190    0.79630    1.000
    H72      H        0.58920    0.68060    0.99300    1.000
    H73      H        0.35560    0.79910    0.22900    1.000
    H74      H        0.61540    0.51240    0.93610    1.000
    H75      H        0.88460    0.06390    0.48760    1.000
    H76      H        0.63130    0.12640    0.27280    1.000
    H77      H        0.14440    0.79910    0.57010    1.000
    H78      H        0.11540    0.48760    0.42370    1.000
    C1       C        0.97970    0.72110    0.94820    1.000
    C2       C        0.02030    0.77290    0.72110    1.000
    C3       C        0.59740    0.18340    0.40690    1.000
    C4       C        0.45620    0.04000    0.33560    1.000
    C5       C        0.58960    0.19200    0.87850    1.000
    C6       C        0.25000    0.11160    0.55580    1.000
    C7       C        0.25000    0.81600    0.40800    1.000
    C8       C        0.03580    0.57120    0.89760    1.000
    C9       C        0.09740    0.81660    0.22350    1.000
    C10      C        0.96790    0.53440    0.82520    1.000
    C11      C        0.96420    0.42880    0.10240    1.000
    C12      C        0.46790    0.46560    0.29080    1.000
    C13      C        0.90260    0.59310    0.81660    1.000
    C14      C        0.67110    0.93730    0.49560    1.000
    C15      C        0.58960    0.12150    0.31350    1.000
    C16      C        0.95620    0.96000    0.29560    1.000
    C17      C        0.47970    0.77290    0.05180    1.000
    C18      C        0.04380    0.29560    0.33560    1.000
    C19      C        0.53580    0.67360    0.10240    1.000
    C20      C        0.55350    0.80940    0.42040    1.000
    C21      C        0.41040    0.80800    0.12150    1.000
    C22      C        0.45620    0.29560    0.96000    1.000
    C23      C        0.03210    0.70920    0.53440    1.000
    C24      C        0.75000    0.40800    0.59200    1.000
    C25      C        0.16940    0.96790    0.51080    1.000
    C26      C        0.96420    0.67360    0.57120    1.000
    C27      C        0.91040    0.12150    0.80800    1.000
    C28      C        0.03580    0.32640    0.42880    1.000
    C29      C        0.25000    0.53955    0.46045    1.000
    C30      C        0.09740    0.77650    0.59310    1.000
    C31      C        0.66940    0.45710    0.48920    1.000
    C32      C        0.67110    0.50440    0.44170    1.000
    C33      C        0.59740    0.59310    0.77650    1.000
    C34      C        0.58960    0.68650    0.80800    1.000
    C35      C        0.08960    0.80800    0.68650    1.000
    C36      C        0.55350    0.61100    0.19060    1.000
    C37      C        0.52030    0.22710    0.94820    1.000
    C38      C        0.75000    0.18400    0.59200    1.000
    C39      C        0.66940    0.51080    0.96790    1.000
    C40      C        0.83060    0.51080    0.54290    1.000
    C41      C        0.96790    0.17480    0.70920    1.000
    C42      C        0.16940    0.54290    0.03210    1.000
    C43      C        0.82890    0.55830    0.49560    1.000
    C44      C        0.45620    0.66440    0.70440    1.000
    C45      C        0.25000    0.53955    0.07910    1.000
    C46      C        0.44650    0.19060    0.57960    1.000
    C47      C        0.25000    0.59200    0.18400    1.000
    C48      C        0.75000    0.40800    0.81600    1.000
    C49      C        0.33060    0.96790    0.45710    1.000
    C50      C        0.94650    0.57960    0.19060    1.000
    C51      C        0.90260    0.18340    0.77650    1.000
    C52      C        0.75000    0.46045    0.53955    1.000
    C53      C        0.03580    0.10240    0.67360    1.000
    C54      C        0.54380    0.96000    0.66440    1.000
    C55      C        0.46790    0.82520    0.53440    1.000
    C56      C        0.41040    0.31350    0.19200    1.000
    C57      C        0.33060    0.48920    0.03210    1.000
    C58      C        0.53580    0.89760    0.57120    1.000
    C59      C        0.82890    0.93730    0.44170    1.000
    C60      C        0.83060    0.03210    0.48920    1.000
    C61      C        0.44650    0.38900    0.80940    1.000
    C62      C        0.33060    0.54290    0.51080    1.000
    C63      C        0.55350    0.57960    0.38900    1.000
    C64      C        0.66940    0.03210    0.54290    1.000
    C65      C        0.91040    0.68650    0.87850    1.000
    C66      C        0.97970    0.22710    0.27890    1.000
    C67      C        0.91040    0.19200    0.31350    1.000
    C68      C        0.94650    0.80940    0.38900    1.000
    C69      C        0.25000    0.92090    0.46045    1.000
    C70      C        0.17110    0.06270    0.55830    1.000
    C71      C        0.04380    0.66440    0.96000    1.000
    C72      C        0.54380    0.70440    0.04000    1.000
    C73      C        0.75000    0.55580    0.11160    1.000
    C74      C        0.16940    0.48920    0.45710    1.000
    C75      C        0.83060    0.45710    0.96790    1.000
    C76      C        0.25000    0.44420    0.88840    1.000
    C77      C        0.17110    0.44170    0.50440    1.000
    C78      C        0.05350    0.19060    0.61100    1.000
    C79      C        0.40260    0.40690    0.22350    1.000
    C80      C        0.40260    0.81660    0.59310    1.000
    C81      C        0.82890    0.50440    0.06270    1.000
    C82      C        0.97970    0.05180    0.77290    1.000
    C83      C        0.08960    0.31350    0.12150    1.000
    C84      C        0.53210    0.53440    0.70920    1.000
    C85      C        0.46420    0.10240    0.42880    1.000
    C86      C        0.52030    0.05180    0.27890    1.000
    C87      C        0.46790    0.70920    0.17480    1.000
    C88      C        0.75000    0.55580    0.44420    1.000
    C89      C        0.17110    0.49560    0.93730    1.000
    C90      C        0.40260    0.77650    0.18340    1.000
    C91      C        0.08960    0.87850    0.19200    1.000
    C92      C        0.32890    0.49560    0.55830    1.000
    C93      C        0.47970    0.27890    0.22710    1.000
    C94      C        0.41040    0.87850    0.68650    1.000
    C95      C        0.46420    0.32640    0.89760    1.000
    C96      C        0.95620    0.33560    0.04000    1.000
    C97      C        0.95620    0.70440    0.66440    1.000
    C98      C        0.25000    0.59200    0.40800    1.000
    C99      C        0.03210    0.82520    0.29080    1.000
    C100     C        0.44650    0.42040    0.61100    1.000
    C101     C        0.32890    0.44170    0.93730    1.000
    C102     C        0.02030    0.94820    0.22710    1.000
    C103     C        0.32890    0.06270    0.50440    1.000
    C104     C        0.09740    0.40690    0.18340    1.000
    C105     C        0.54380    0.33560    0.29560    1.000
    C106     C        0.47970    0.94820    0.72110    1.000
    C107     C        0.46420    0.57120    0.67360    1.000
    C108     C        0.90260    0.22350    0.40690    1.000
    C109     C        0.75000    0.46045    0.92090    1.000
    C110     C        0.94650    0.61100    0.42040    1.000
    C111     C        0.05350    0.42040    0.80940    1.000
    C112     C        0.02030    0.27890    0.05180    1.000
    C113     C        0.53210    0.29080    0.82520    1.000
    C114     C        0.59740    0.22350    0.81660    1.000
    C115     C        0.75000    0.07910    0.53955    1.000
    C116     C        0.05350    0.38900    0.57960    1.000
    C117     C        0.96790    0.29080    0.46560    1.000
    C118     C        0.67110    0.55830    0.06270    1.000
    C119     C        0.03210    0.46560    0.17480    1.000
    C120     C        0.52030    0.72110    0.77290    1.000
    C121     C        0.75000    0.88840    0.44420    1.000
    C122     C        0.04380    0.04000    0.70440    1.000
    C123     C        0.96420    0.89760    0.32640    1.000
    C124     C        0.25000    0.44420    0.55580    1.000
    C125     C        0.53210    0.17480    0.46560    1.000
    C126     C        0.53580    0.42880    0.32640    1.000
    N1       N        0.48130    0.56100    0.33160    1.000
    N2       N        0.01870    0.56100    0.22940    1.000
    N3       N        0.01870    0.77060    0.33160    1.000
    N4       N        0.08790    0.38980    0.50400    1.000
    N5       N        0.08790    0.49600    0.88580    1.000
    N6       N        0.48130    0.77060    0.43900    1.000
    N7       N        0.41210    0.49600    0.61020    1.000
    N8       N        0.58790    0.61020    0.11420    1.000
    N9       N        0.48130    0.66840    0.22940    1.000
    N10      N        0.98130    0.22940    0.66840    1.000
    N11      N        0.08790    0.11420    0.61020    1.000
    N12      N        0.91210    0.50400    0.11420    1.000
    N13      N        0.58790    0.88580    0.49600    1.000
    N14      N        0.58790    0.50400    0.38980    1.000
    N15      N        0.41210    0.38980    0.88580    1.000
    N16      N        0.91210    0.88580    0.38980    1.000
    N17      N        0.51870    0.33160    0.77060    1.000
    N18      N        0.01870    0.66840    0.43900    1.000
    N19      N        0.98130    0.43900    0.77060    1.000
    N20      N        0.98130    0.33160    0.56100    1.000
    N21      N        0.51870    0.22940    0.56100    1.000
    N22      N        0.41210    0.11420    0.50400    1.000
    N23      N        0.51870    0.43900    0.66840    1.000
    N24      N        0.91210    0.61020    0.49600    1.000
    O1       O        0.18150    0.57460    0.35330    1.000
    O2       O        0.81850    0.22130    0.57460    1.000
    O3       O        0.31850    0.77870    0.35330    1.000
    O4       O        0.68150    0.42540    0.77870    1.000
    O5       O        0.68150    0.35330    0.57460    1.000
    O6       O        0.81850    0.35330    0.77870    1.000
    O7       O        0.18150    0.64670    0.22130    1.000
    O8       O        0.31850    0.57460    0.22130    1.000
    O9       O        0.81850    0.42540    0.64670    1.000
    O10      O        0.68150    0.22130    0.64670    1.000
    O11      O        0.31850    0.64670    0.42540    1.000
    O12      O        0.18150    0.77870    0.42540    1.000
