# CIF file generated by openbabel 3.1.0, see https://openbabel.org
data_I
_chemical_name_common 'image0'
_cell_length_a 15.2229
_cell_length_b 15.2229
_cell_length_c 6.8862
_cell_angle_alpha 90
_cell_angle_beta 90
_cell_angle_gamma 120
_space_group_name_H-M_alt 'P 1'
_space_group_name_Hall 'P 1'
loop_
    _symmetry_equiv_pos_as_xyz
    x,y,z
loop_
    _atom_site_label
    _atom_site_type_symbol
    _atom_site_fract_x
    _atom_site_fract_y
    _atom_site_fract_z
    _atom_site_occupancy
    C1       C        0.08560    0.46060    0.96500    1.000
    C2       C        0.02000    0.42800    0.14500    1.000
    C3       C        0.53940    0.62500    0.96500    1.000
    C4       C        0.57200    0.59200    0.14500    1.000
    C5       C        0.37500    0.91440    0.96500    1.000
    C6       C        0.40800    0.98000    0.14500    1.000
    C7       C        0.46060    0.08560    0.03500    1.000
    C8       C        0.42800    0.02000    0.85500    1.000
    C9       C        0.62500    0.53940    0.03500    1.000
    C10      C        0.59200    0.57200    0.85500    1.000
    C11      C        0.91440    0.37500    0.03500    1.000
    C12      C        0.98000    0.40800    0.85500    1.000
    C13      C        0.91440    0.53940    0.03500    1.000
    C14      C        0.98000    0.57200    0.85500    1.000
    C15      C        0.46060    0.37500    0.03500    1.000
    C16      C        0.42800    0.40800    0.85500    1.000
    C17      C        0.62500    0.08560    0.03500    1.000
    C18      C        0.59200    0.02000    0.85500    1.000
    C19      C        0.53940    0.91440    0.96500    1.000
    C20      C        0.57200    0.98000    0.14500    1.000
    C21      C        0.37500    0.46060    0.96500    1.000
    C22      C        0.40800    0.42800    0.14500    1.000
    C23      C        0.08560    0.62500    0.96500    1.000
    C24      C        0.02000    0.59200    0.14500    1.000
    C25      C        0.10800    0.55400    0.88700    1.000
    C26      C        0.99500    0.49750    0.76500    1.000
    N1       N        0.08570    0.54285    0.09570    1.000
    Cu1      Cu       0.22046    0.61023    0.24720    1.000
    C27      C        0.44600    0.55400    0.88700    1.000
    C28      C        0.50250    0.49750    0.76500    1.000
    N2       N        0.45715    0.54285    0.09570    1.000
    Cu2      Cu       0.38977    0.61023    0.24720    1.000
    C29      C        0.44600    0.89200    0.88700    1.000
    C30      C        0.50250    0.00500    0.76500    1.000
    N3       N        0.45715    0.91430    0.09570    1.000
    Cu3      Cu       0.38977    0.77954    0.24720    1.000
    C31      C        0.55400    0.10800    0.11300    1.000
    C32      C        0.49750    0.99500    0.23500    1.000
    N4       N        0.54285    0.08570    0.90430    1.000
    Cu4      Cu       0.61023    0.22046    0.75280    1.000
    C33      C        0.55400    0.44600    0.11300    1.000
    C34      C        0.49750    0.50250    0.23500    1.000
    N5       N        0.54285    0.45715    0.90430    1.000
    Cu5      Cu       0.61023    0.38977    0.75280    1.000
    C35      C        0.89200    0.44600    0.11300    1.000
    C36      C        0.00500    0.50250    0.23500    1.000
    N6       N        0.91430    0.45715    0.90430    1.000
    Cu6      Cu       0.77954    0.38977    0.75280    1.000
    C37      C        0.33333    0.66667    0.86000    1.000
    N7       N        0.33333    0.66667    0.01800    1.000
    Cu7      Cu       0.33333    0.66667    0.58060    1.000
    C38      C        0.66667    0.33333    0.14000    1.000
    N8       N        0.66667    0.33333    0.98200    1.000
    Cu8      Cu       0.66667    0.33333    0.41940    1.000
    I1       I        0.23508    0.47017    0.46309    1.000
    I2       I        0.52983    0.76491    0.46309    1.000
    I3       I        0.23509    0.76492    0.46309    1.000
    I4       I        0.47017    0.23508    0.53691    1.000
    I5       I        0.76491    0.52983    0.53691    1.000
    I6       I        0.76492    0.23509    0.53691    1.000
