# CIF file generated by openbabel 3.1.0, see https://openbabel.org
data_I
_chemical_name_common 'image0'
_cell_length_a 12
_cell_length_b 12.611
_cell_length_c 11.526
_cell_angle_alpha 115.75
_cell_angle_beta 106.99
_cell_angle_gamma 69.34
_space_group_name_H-M_alt 'P 1'
_space_group_name_Hall 'P 1'
loop_
    _symmetry_equiv_pos_as_xyz
    x,y,z
loop_
    _atom_site_label
    _atom_site_type_symbol
    _atom_site_fract_x
    _atom_site_fract_y
    _atom_site_fract_z
    _atom_site_occupancy
    S1       S        0.74300    0.39440    0.84670    1.000
    O1       O        0.66010    0.40100    0.92400    1.000
    O2       O        0.82250    0.47030    0.92910    1.000
    O3       O        0.68080    0.42300    0.73120    1.000
    O4       O        0.81890    0.26270    0.80000    1.000
    O5       O        0.86700    0.37700    0.90200    1.000
    O6       O        0.68900    0.53600    0.85400    1.000
    O7       O        0.71700    0.31800    0.72400    1.000
    N1       N        0.60240    0.59150    0.18770    1.000
    N2       N        0.90600    0.90690    0.80940    1.000
    N3       N        0.00440    0.49430    0.80610    1.000
    C1       C        0.59200    0.58700    0.29700    1.000
    C2       C        0.64900    0.64900    0.42000    1.000
    C3       C        0.72210    0.72000    0.43450    1.000
    C4       C        0.73350    0.72220    0.31900    1.000
    C5       C        0.67400    0.66000    0.20190    1.000
    C6       C        0.90900    0.92100    0.70300    1.000
    C7       C        0.85100    0.86200    0.58200    1.000
    C8       C        0.78450    0.78360    0.56350    1.000
    C9       C        0.78200    0.77260    0.67600    1.000
    C10      C        0.84200    0.83340    0.79600    1.000
    C11      C        0.94500    0.42500    0.69300    1.000
    C12      C        0.94100    0.43000    0.57400    1.000
    C13      C        0.00200    0.50030    0.56290    1.000
    C14      C        0.06800    0.56420    0.67800    1.000
    C15      C        0.06900    0.55900    0.79480    1.000
    H1       H        0.54040    0.53830    0.29040    1.000
    H2       H        0.63860    0.64110    0.49570    1.000
    H3       H        0.78360    0.76800    0.32210    1.000
    H4       H        0.68430    0.66220    0.12300    1.000
    H5       H        0.95520    0.97570    0.71160    1.000
    H6       H        0.85510    0.87510    0.50650    1.000
    H7       H        0.73710    0.72110    0.67100    1.000
    H8       H        0.83870    0.82190    0.87220    1.000
    H9       H        0.90430    0.36950    0.69600    1.000
    H10      H        0.89470    0.38170    0.49530    1.000
    H11      H        0.11060    0.61430    0.67550    1.000
    H12      H        0.11840    0.60420    0.87370    1.000
    S2       S        0.25700    0.60560    0.15330    1.000
    O8       O        0.33990    0.59900    0.07600    1.000
    O9       O        0.17750    0.52970    0.07090    1.000
    O10      O        0.31920    0.57700    0.26880    1.000
    O11      O        0.18110    0.73730    0.20000    1.000
    O12      O        0.13300    0.62300    0.09800    1.000
    O13      O        0.31100    0.46400    0.14600    1.000
    O14      O        0.28300    0.68200    0.27600    1.000
    N4       N        0.39760    0.40850    0.81230    1.000
    N5       N        0.09400    0.09310    0.19060    1.000
    N6       N        0.99560    0.50570    0.19390    1.000
    C16      C        0.40800    0.41300    0.70300    1.000
    C17      C        0.35100    0.35100    0.58000    1.000
    C18      C        0.27790    0.28000    0.56550    1.000
    C19      C        0.26650    0.27780    0.68100    1.000
    C20      C        0.32600    0.34000    0.79810    1.000
    C21      C        0.09100    0.07900    0.29700    1.000
    C22      C        0.14900    0.13800    0.41800    1.000
    C23      C        0.21550    0.21640    0.43650    1.000
    C24      C        0.21800    0.22740    0.32400    1.000
    C25      C        0.15800    0.16660    0.20400    1.000
    C26      C        0.05500    0.57500    0.30700    1.000
    C27      C        0.05900    0.57000    0.42600    1.000
    C28      C        0.99800    0.49970    0.43710    1.000
    C29      C        0.93200    0.43580    0.32200    1.000
    C30      C        0.93100    0.44100    0.20520    1.000
    H13      H        0.45960    0.46170    0.70960    1.000
    H14      H        0.36140    0.35890    0.50430    1.000
    H15      H        0.21640    0.23200    0.67790    1.000
    H16      H        0.31570    0.33780    0.87700    1.000
    H17      H        0.04480    0.02430    0.28840    1.000
    H18      H        0.14490    0.12490    0.49350    1.000
    H19      H        0.26290    0.27890    0.32900    1.000
    H20      H        0.16130    0.17810    0.12780    1.000
    H21      H        0.09570    0.63050    0.30400    1.000
    H22      H        0.10530    0.61830    0.50470    1.000
    H23      H        0.88940    0.38570    0.32450    1.000
    H24      H        0.88160    0.39580    0.12630    1.000
    Fe1      Fe       0.50000    0.50000    0.00000    1.000
    Fe2      Fe       0.00000    0.00000    0.00000    1.000
    Fe3      Fe       0.00000    0.50000    0.00000    1.000
