# CIF file generated by openbabel 3.1.0, see https://openbabel.org
data_I
_chemical_name_common 'image0'
_cell_length_a 15.762
_cell_length_b 15.762
_cell_length_c 15.762
_cell_angle_alpha 90
_cell_angle_beta 90
_cell_angle_gamma 90
_space_group_name_H-M_alt 'P 1'
_space_group_name_Hall 'P 1'
loop_
    _symmetry_equiv_pos_as_xyz
    x,y,z
loop_
    _atom_site_label
    _atom_site_type_symbol
    _atom_site_fract_x
    _atom_site_fract_y
    _atom_site_fract_z
    _atom_site_occupancy
    N1       N        0.23850    0.37580    0.08260    1.000
    C1       C        0.23010    0.31900    0.12380    1.000
    N2       N        0.76150    0.62420    0.08260    1.000
    C2       C        0.76990    0.68100    0.12380    1.000
    N3       N        0.76150    0.37580    0.91740    1.000
    C3       C        0.76990    0.31900    0.87620    1.000
    N4       N        0.23850    0.62420    0.91740    1.000
    C4       C        0.23010    0.68100    0.87620    1.000
    N5       N        0.08260    0.23850    0.37580    1.000
    C5       C        0.12380    0.23010    0.31900    1.000
    N6       N        0.08260    0.76150    0.62420    1.000
    C6       C        0.12380    0.76990    0.68100    1.000
    N7       N        0.91740    0.76150    0.37580    1.000
    C7       C        0.87620    0.76990    0.31900    1.000
    N8       N        0.91740    0.23850    0.62420    1.000
    C8       C        0.87620    0.23010    0.68100    1.000
    N9       N        0.37580    0.08260    0.23850    1.000
    C9       C        0.31900    0.12380    0.23010    1.000
    N10      N        0.62420    0.08260    0.76150    1.000
    C10      C        0.68100    0.12380    0.76990    1.000
    N11      N        0.37580    0.91740    0.76150    1.000
    C11      C        0.31900    0.87620    0.76990    1.000
    N12      N        0.62420    0.91740    0.23850    1.000
    C12      C        0.68100    0.87620    0.23010    1.000
    N13      N        0.87580    0.73850    0.58260    1.000
    C13      C        0.81900    0.73010    0.62380    1.000
    N14      N        0.12420    0.26150    0.58260    1.000
    C14      C        0.18100    0.26990    0.62380    1.000
    N15      N        0.87580    0.26150    0.41740    1.000
    C15      C        0.81900    0.26990    0.37620    1.000
    N16      N        0.12420    0.73850    0.41740    1.000
    C16      C        0.18100    0.73010    0.37620    1.000
    N17      N        0.73850    0.58260    0.87580    1.000
    C17      C        0.73010    0.62380    0.81900    1.000
    N18      N        0.26150    0.58260    0.12420    1.000
    C18      C        0.26990    0.62380    0.18100    1.000
    N19      N        0.26150    0.41740    0.87580    1.000
    C19      C        0.26990    0.37620    0.81900    1.000
    N20      N        0.73850    0.41740    0.12420    1.000
    C20      C        0.73010    0.37620    0.18100    1.000
    N21      N        0.58260    0.87580    0.73850    1.000
    C21      C        0.62380    0.81900    0.73010    1.000
    N22      N        0.58260    0.12420    0.26150    1.000
    C22      C        0.62380    0.18100    0.26990    1.000
    N23      N        0.41740    0.87580    0.26150    1.000
    C23      C        0.37620    0.81900    0.26990    1.000
    N24      N        0.41740    0.12420    0.73850    1.000
    C24      C        0.37620    0.18100    0.73010    1.000
    Cd1      Cd       0.25000    0.50000    0.00000    1.000
    Cd2      Cd       0.75000    0.50000    0.00000    1.000
    Cd3      Cd       0.00000    0.25000    0.50000    1.000
    Cd4      Cd       0.00000    0.75000    0.50000    1.000
    Cd5      Cd       0.50000    0.00000    0.25000    1.000
    Cd6      Cd       0.50000    0.00000    0.75000    1.000
    Cd7      Cd       0.00000    0.00000    0.00000    1.000
    Cd8      Cd       0.50000    0.50000    0.50000    1.000
    Cd9      Cd       0.20687    0.20687    0.20687    1.000
    C25      C        0.08250    0.08250    0.08250    1.000
    C26      C        0.12380    0.12380    0.12380    1.000
    Cd10     Cd       0.79313    0.79313    0.20687    1.000
    C27      C        0.91750    0.91750    0.08250    1.000
    C28      C        0.87620    0.87620    0.12380    1.000
    Cd11     Cd       0.79313    0.20687    0.79313    1.000
    C29      C        0.91750    0.08250    0.91750    1.000
    C30      C        0.87620    0.12380    0.87620    1.000
    Cd12     Cd       0.20687    0.79313    0.79313    1.000
    C31      C        0.08250    0.91750    0.91750    1.000
    C32      C        0.12380    0.87620    0.87620    1.000
    Cd13     Cd       0.70687    0.70687    0.70687    1.000
    C33      C        0.58250    0.58250    0.58250    1.000
    C34      C        0.62380    0.62380    0.62380    1.000
    Cd14     Cd       0.29313    0.29313    0.70687    1.000
    C35      C        0.41750    0.41750    0.58250    1.000
    C36      C        0.37620    0.37620    0.62380    1.000
    Cd15     Cd       0.70687    0.29313    0.29313    1.000
    C37      C        0.58250    0.41750    0.41750    1.000
    C38      C        0.62380    0.37620    0.37620    1.000
    Cd16     Cd       0.29313    0.70687    0.29313    1.000
    C39      C        0.41750    0.58250    0.41750    1.000
    C40      C        0.37620    0.62380    0.37620    1.000
