# CIF file generated by openbabel 3.1.0, see https://openbabel.org
data_I
_chemical_name_common 'image0'
_cell_length_a 11.838
_cell_length_b 24.772
_cell_length_c 15.773
_cell_angle_alpha 90
_cell_angle_beta 96.834
_cell_angle_gamma 90
_space_group_name_H-M_alt 'P 1'
_space_group_name_Hall 'P 1'
loop_
    _symmetry_equiv_pos_as_xyz
    x,y,z
loop_
    _atom_site_label
    _atom_site_type_symbol
    _atom_site_fract_x
    _atom_site_fract_y
    _atom_site_fract_z
    _atom_site_occupancy
    Co1      Co       0.91188    0.33503    0.00753    1.000
    C1       C        0.01850    0.37432    0.17410    1.000
    C2       C        0.97970    0.37230    0.25930    1.000
    H1       H        0.92830    0.40240    0.26370    1.000
    H2       H        0.93570    0.33950    0.26270    1.000
    C3       C        0.12420    0.60863    0.15160    1.000
    C4       C        0.10540    0.55709    0.20090    1.000
    H3       H        0.02450    0.55020    0.19890    1.000
    H4       H        0.13940    0.52680    0.17430    1.000
    C5       C        0.10320    0.46775    0.30500    1.000
    H5       H        0.06990    0.46530    0.24870    1.000
    C6       C        0.15000    0.51561    0.33570    1.000
    C7       C        0.19940    0.52077    0.41970    1.000
    C8       C        0.20200    0.47474    0.47060    1.000
    H6       H        0.23600    0.47700    0.52670    1.000
    C9       C        0.15620    0.42554    0.44140    1.000
    C10      C        0.10580    0.42310    0.35820    1.000
    C11      C        0.15910    0.37479    0.49780    1.000
    H7       H        0.18420    0.34510    0.46340    1.000
    C12      C        0.24770    0.37969    0.57570    1.000
    C13      C        0.22870    0.40740    0.64750    1.000
    H8       H        0.15610    0.42040    0.65250    1.000
    C14      C        0.31540    0.41650    0.71290    1.000
    H9       H        0.30040    0.43580    0.76100    1.000
    C15      C        0.42360    0.39730    0.70780    1.000
    C16      C        0.52060    0.41060    0.77920    1.000
    H10      H        0.58980    0.39400    0.76620    1.000
    H11      H        0.50150    0.39690    0.83260    1.000
    H12      H        0.53080    0.44900    0.78300    1.000
    C17      C        0.44140    0.36820    0.63740    1.000
    H13      H        0.51330    0.35410    0.63310    1.000
    C18      C        0.35570    0.35930    0.57290    1.000
    H14      H        0.37050    0.33890    0.52590    1.000
    C19      C        0.18200    0.18090    0.52670    1.000
    C20      C        0.07790    0.21357    0.53440    1.000
    H15      H        0.01720    0.20230    0.49120    1.000
    H16      H        0.05290    0.20770    0.59000    1.000
    C21      C        0.57220    0.24638    0.53430    1.000
    C22      C        0.65250    0.28639    0.50340    1.000
    H17      H        0.70310    0.26800    0.46880    1.000
    H18      H        0.60970    0.31300    0.46770    1.000
    C23      C        0.90740    0.28979    0.54790    1.000
    H19      H        0.89020    0.25350    0.55470    1.000
    C24      C        0.82590    0.32890    0.55490    1.000
    C25      C        0.84830    0.38333    0.54560    1.000
    C26      C        0.95710    0.39709    0.52790    1.000
    H20      H        0.97390    0.43340    0.52140    1.000
    C27      C        0.04180    0.35945    0.51940    1.000
    C28      C        0.01500    0.30492    0.53080    1.000
    C29      C        0.75440    0.42462    0.54880    1.000
    H21      H        0.70750    0.41160    0.59170    1.000
    C30      C        0.67620    0.42654    0.46420    1.000
    C31      C        0.71410    0.41440    0.38800    1.000
    H22      H        0.79050    0.40640    0.38630    1.000
    C32      C        0.63860    0.41410    0.31180    1.000
    H23      H        0.66590    0.40570    0.26050    1.000
    C33      C        0.52600    0.42590    0.31220    1.000
    C34      C        0.44470    0.42430    0.22870    1.000
    H24      H        0.48640    0.41460    0.18230    1.000
    H25      H        0.41090    0.45920    0.21800    1.000
    H26      H        0.38610    0.39810    0.23350    1.000
    C35      C        0.48940    0.43860    0.38810    1.000
    H27      H        0.41320    0.44740    0.38940    1.000
    C36      C        0.56250    0.43880    0.46400    1.000
    H28      H        0.53450    0.44730    0.51500    1.000
    O1       O        0.93580    0.37417    0.11490    1.000
    O2       O        0.11990    0.37619    0.16580    1.000
    O3       O        0.08930    0.60358    0.07156    1.000
    O4       O        0.16480    0.64871    0.18490    1.000
    O5       O        0.26990    0.20397    0.51130    1.000
    O6       O        0.17050    0.13173    0.53420    1.000
    O7       O        0.51640    0.21949    0.47367    1.000
    O8       O        0.56060    0.24159    0.61000    1.000
    O9       O        0.06240    0.37378    0.33085    1.000
    O10      O        0.15340    0.56147    0.28561    1.000
    O11      O        0.71780    0.31279    0.57245    1.000
    O12      O        0.10130    0.26900    0.52395    1.000
    Co2      Co       0.58812    0.83503    0.49247    1.000
    C37      C        0.48150    0.87432    0.32590    1.000
    C38      C        0.52030    0.87230    0.24070    1.000
    H29      H        0.57170    0.90240    0.23630    1.000
    H30      H        0.56430    0.83950    0.23730    1.000
    C39      C        0.37580    0.10863    0.34840    1.000
    C40      C        0.39460    0.05709    0.29910    1.000
    H31      H        0.47550    0.05020    0.30110    1.000
    H32      H        0.36060    0.02680    0.32570    1.000
    C41      C        0.39680    0.96775    0.19500    1.000
    H33      H        0.43010    0.96530    0.25130    1.000
    C42      C        0.35000    0.01561    0.16430    1.000
    C43      C        0.30060    0.02077    0.08030    1.000
    C44      C        0.29800    0.97474    0.02940    1.000
    H34      H        0.26400    0.97700    0.97330    1.000
    C45      C        0.34380    0.92554    0.05860    1.000
    C46      C        0.39420    0.92310    0.14180    1.000
    C47      C        0.34090    0.87479    0.00220    1.000
    H35      H        0.31580    0.84510    0.03660    1.000
    C48      C        0.25230    0.87969    0.92430    1.000
    C49      C        0.27130    0.90740    0.85250    1.000
    H36      H        0.34390    0.92040    0.84750    1.000
    C50      C        0.18460    0.91650    0.78710    1.000
    H37      H        0.19960    0.93580    0.73900    1.000
    C51      C        0.07640    0.89730    0.79220    1.000
    C52      C        0.97940    0.91060    0.72080    1.000
    H38      H        0.91020    0.89400    0.73380    1.000
    H39      H        0.99850    0.89690    0.66740    1.000
    H40      H        0.96920    0.94900    0.71700    1.000
    C53      C        0.05860    0.86820    0.86260    1.000
    H41      H        0.98670    0.85410    0.86690    1.000
    C54      C        0.14430    0.85930    0.92710    1.000
    H42      H        0.12950    0.83890    0.97410    1.000
    C55      C        0.31800    0.68090    0.97330    1.000
    C56      C        0.42210    0.71357    0.96560    1.000
    H43      H        0.48280    0.70230    0.00880    1.000
    H44      H        0.44710    0.70770    0.91000    1.000
    C57      C        0.92780    0.74638    0.96570    1.000
    C58      C        0.84750    0.78639    0.99660    1.000
    H45      H        0.79690    0.76800    0.03120    1.000
    H46      H        0.89030    0.81300    0.03230    1.000
    C59      C        0.59260    0.78979    0.95210    1.000
    H47      H        0.60980    0.75350    0.94530    1.000
    C60      C        0.67410    0.82890    0.94510    1.000
    C61      C        0.65170    0.88333    0.95440    1.000
    C62      C        0.54290    0.89709    0.97210    1.000
    H48      H        0.52610    0.93340    0.97860    1.000
    C63      C        0.45820    0.85945    0.98060    1.000
    C64      C        0.48500    0.80492    0.96920    1.000
    C65      C        0.74560    0.92462    0.95120    1.000
    H49      H        0.79250    0.91160    0.90830    1.000
    C66      C        0.82380    0.92654    0.03580    1.000
    C67      C        0.78590    0.91440    0.11200    1.000
    H50      H        0.70950    0.90640    0.11370    1.000
    C68      C        0.86140    0.91410    0.18820    1.000
    H51      H        0.83410    0.90570    0.23950    1.000
    C69      C        0.97400    0.92590    0.18780    1.000
    C70      C        0.05530    0.92430    0.27130    1.000
    H52      H        0.01360    0.91460    0.31770    1.000
    H53      H        0.08910    0.95920    0.28200    1.000
    H54      H        0.11390    0.89810    0.26650    1.000
    C71      C        0.01060    0.93860    0.11190    1.000
    H55      H        0.08680    0.94740    0.11060    1.000
    C72      C        0.93750    0.93880    0.03600    1.000
    H56      H        0.96550    0.94730    0.98500    1.000
    O13      O        0.56420    0.87417    0.38510    1.000
    O14      O        0.38010    0.87619    0.33420    1.000
    O15      O        0.41070    0.10358    0.42844    1.000
    O16      O        0.33520    0.14871    0.31510    1.000
    O17      O        0.23010    0.70397    0.98870    1.000
    O18      O        0.32950    0.63173    0.96580    1.000
    O19      O        0.98360    0.71949    0.02633    1.000
    O20      O        0.93940    0.74159    0.89000    1.000
    O21      O        0.43760    0.87378    0.16915    1.000
    O22      O        0.34660    0.06147    0.21439    1.000
    O23      O        0.78220    0.81279    0.92755    1.000
    O24      O        0.39870    0.76900    0.97605    1.000
    Co3      Co       0.08812    0.66497    0.99247    1.000
    C73      C        0.98150    0.62568    0.82590    1.000
    C74      C        0.02030    0.62770    0.74070    1.000
    H57      H        0.07170    0.59760    0.73630    1.000
    H58      H        0.06430    0.66050    0.73730    1.000
    C75      C        0.87580    0.39137    0.84840    1.000
    C76      C        0.89460    0.44291    0.79910    1.000
    H59      H        0.97550    0.44980    0.80110    1.000
    H60      H        0.86060    0.47320    0.82570    1.000
    C77      C        0.89680    0.53225    0.69500    1.000
    H61      H        0.93010    0.53470    0.75130    1.000
    C78      C        0.85000    0.48439    0.66430    1.000
    C79      C        0.80060    0.47923    0.58030    1.000
    C80      C        0.79800    0.52526    0.52940    1.000
    H62      H        0.76400    0.52300    0.47330    1.000
    C81      C        0.84380    0.57446    0.55860    1.000
    C82      C        0.89420    0.57690    0.64180    1.000
    C83      C        0.84090    0.62521    0.50220    1.000
    H63      H        0.81580    0.65490    0.53660    1.000
    C84      C        0.75230    0.62031    0.42430    1.000
    C85      C        0.77130    0.59260    0.35250    1.000
    H64      H        0.84390    0.57960    0.34750    1.000
    C86      C        0.68460    0.58350    0.28710    1.000
    H65      H        0.69960    0.56420    0.23900    1.000
    C87      C        0.57640    0.60270    0.29220    1.000
    C88      C        0.47940    0.58940    0.22080    1.000
    H66      H        0.41020    0.60600    0.23380    1.000
    H67      H        0.49850    0.60310    0.16740    1.000
    H68      H        0.46920    0.55100    0.21700    1.000
    C89      C        0.55860    0.63180    0.36260    1.000
    H69      H        0.48670    0.64590    0.36690    1.000
    C90      C        0.64430    0.64070    0.42710    1.000
    H70      H        0.62950    0.66110    0.47410    1.000
    C91      C        0.81800    0.81910    0.47330    1.000
    C92      C        0.92210    0.78643    0.46560    1.000
    H71      H        0.98280    0.79770    0.50880    1.000
    H72      H        0.94710    0.79230    0.41000    1.000
    C93      C        0.42780    0.75362    0.46570    1.000
    C94      C        0.34750    0.71361    0.49660    1.000
    H73      H        0.29690    0.73200    0.53120    1.000
    H74      H        0.39030    0.68700    0.53230    1.000
    C95      C        0.09260    0.71021    0.45210    1.000
    H75      H        0.10980    0.74650    0.44530    1.000
    C96      C        0.17410    0.67110    0.44510    1.000
    C97      C        0.15170    0.61667    0.45440    1.000
    C98      C        0.04290    0.60291    0.47210    1.000
    H76      H        0.02610    0.56660    0.47860    1.000
    C99      C        0.95820    0.64055    0.48060    1.000
    C100     C        0.98500    0.69508    0.46920    1.000
    C101     C        0.24560    0.57538    0.45120    1.000
    H77      H        0.29250    0.58840    0.40830    1.000
    C102     C        0.32380    0.57346    0.53580    1.000
    C103     C        0.28590    0.58560    0.61200    1.000
    H78      H        0.20950    0.59360    0.61370    1.000
    C104     C        0.36140    0.58590    0.68820    1.000
    H79      H        0.33410    0.59430    0.73950    1.000
    C105     C        0.47400    0.57410    0.68780    1.000
    C106     C        0.55530    0.57570    0.77130    1.000
    H80      H        0.51360    0.58540    0.81770    1.000
    H81      H        0.58910    0.54080    0.78200    1.000
    H82      H        0.61390    0.60190    0.76650    1.000
    C107     C        0.51060    0.56140    0.61190    1.000
    H83      H        0.58680    0.55260    0.61060    1.000
    C108     C        0.43750    0.56120    0.53600    1.000
    H84      H        0.46550    0.55270    0.48500    1.000
    O25      O        0.06420    0.62583    0.88510    1.000
    O26      O        0.88010    0.62381    0.83420    1.000
    O27      O        0.91070    0.39642    0.92844    1.000
    O28      O        0.83520    0.35129    0.81510    1.000
    O29      O        0.73010    0.79603    0.48870    1.000
    O30      O        0.82950    0.86827    0.46580    1.000
    O31      O        0.48360    0.78051    0.52633    1.000
    O32      O        0.43940    0.75841    0.39000    1.000
    O33      O        0.93760    0.62622    0.66915    1.000
    O34      O        0.84660    0.43853    0.71439    1.000
    O35      O        0.28220    0.68721    0.42755    1.000
    O36      O        0.89870    0.73100    0.47605    1.000
    Co4      Co       0.41188    0.16497    0.50753    1.000
    C109     C        0.51850    0.12568    0.67410    1.000
    C110     C        0.47970    0.12770    0.75930    1.000
    H85      H        0.42830    0.09760    0.76370    1.000
    H86      H        0.43570    0.16050    0.76270    1.000
    C111     C        0.62420    0.89137    0.65160    1.000
    C112     C        0.60540    0.94291    0.70090    1.000
    H87      H        0.52450    0.94980    0.69890    1.000
    H88      H        0.63940    0.97320    0.67430    1.000
    C113     C        0.60320    0.03225    0.80500    1.000
    H89      H        0.56990    0.03470    0.74870    1.000
    C114     C        0.65000    0.98439    0.83570    1.000
    C115     C        0.69940    0.97923    0.91970    1.000
    C116     C        0.70200    0.02526    0.97060    1.000
    H90      H        0.73600    0.02300    0.02670    1.000
    C117     C        0.65620    0.07446    0.94140    1.000
    C118     C        0.60580    0.07690    0.85820    1.000
    C119     C        0.65910    0.12521    0.99780    1.000
    H91      H        0.68420    0.15490    0.96340    1.000
    C120     C        0.74770    0.12031    0.07570    1.000
    C121     C        0.72870    0.09260    0.14750    1.000
    H92      H        0.65610    0.07960    0.15250    1.000
    C122     C        0.81540    0.08350    0.21290    1.000
    H93      H        0.80040    0.06420    0.26100    1.000
    C123     C        0.92360    0.10270    0.20780    1.000
    C124     C        0.02060    0.08940    0.27920    1.000
    H94      H        0.08980    0.10600    0.26620    1.000
    H95      H        0.00150    0.10310    0.33260    1.000
    H96      H        0.03080    0.05100    0.28300    1.000
    C125     C        0.94140    0.13180    0.13740    1.000
    H97      H        0.01330    0.14590    0.13310    1.000
    C126     C        0.85570    0.14070    0.07290    1.000
    H98      H        0.87050    0.16110    0.02590    1.000
    C127     C        0.68200    0.31910    0.02670    1.000
    C128     C        0.57790    0.28643    0.03440    1.000
    H99      H        0.51720    0.29770    0.99120    1.000
    H100     H        0.55290    0.29230    0.09000    1.000
    C129     C        0.07220    0.25362    0.03430    1.000
    C130     C        0.15250    0.21361    0.00340    1.000
    H101     H        0.20310    0.23200    0.96880    1.000
    H102     H        0.10970    0.18700    0.96770    1.000
    C131     C        0.40740    0.21021    0.04790    1.000
    H103     H        0.39020    0.24650    0.05470    1.000
    C132     C        0.32590    0.17110    0.05490    1.000
    C133     C        0.34830    0.11667    0.04560    1.000
    C134     C        0.45710    0.10291    0.02790    1.000
    H104     H        0.47390    0.06660    0.02140    1.000
    C135     C        0.54180    0.14055    0.01940    1.000
    C136     C        0.51500    0.19508    0.03080    1.000
    C137     C        0.25440    0.07538    0.04880    1.000
    H105     H        0.20750    0.08840    0.09170    1.000
    C138     C        0.17620    0.07346    0.96420    1.000
    C139     C        0.21410    0.08560    0.88800    1.000
    H106     H        0.29050    0.09360    0.88630    1.000
    C140     C        0.13860    0.08590    0.81180    1.000
    H107     H        0.16590    0.09430    0.76050    1.000
    C141     C        0.02600    0.07410    0.81220    1.000
    C142     C        0.94470    0.07570    0.72870    1.000
    H108     H        0.98640    0.08540    0.68230    1.000
    H109     H        0.91090    0.04080    0.71800    1.000
    H110     H        0.88610    0.10190    0.73350    1.000
    C143     C        0.98940    0.06140    0.88810    1.000
    H111     H        0.91320    0.05260    0.88940    1.000
    C144     C        0.06250    0.06120    0.96400    1.000
    H112     H        0.03450    0.05270    0.01500    1.000
    O37      O        0.43580    0.12583    0.61490    1.000
    O38      O        0.61990    0.12381    0.66580    1.000
    O39      O        0.58930    0.89642    0.57156    1.000
    O40      O        0.66480    0.85129    0.68490    1.000
    O41      O        0.76990    0.29603    0.01130    1.000
    O42      O        0.67050    0.36827    0.03420    1.000
    O43      O        0.01640    0.28051    0.97367    1.000
    O44      O        0.06060    0.25841    0.11000    1.000
    O45      O        0.56240    0.12622    0.83085    1.000
    O46      O        0.65340    0.93853    0.78561    1.000
    O47      O        0.21780    0.18721    0.07245    1.000
    O48      O        0.60130    0.23100    0.02395    1.000
