# CIF file generated by openbabel 3.1.0, see https://openbabel.org
data_I
_chemical_name_common 'CUVHIL02_clean_h'
_cell_length_a 11.6868
_cell_length_b 21.3912
_cell_length_c 21.3912
_cell_angle_alpha 63.2401
_cell_angle_beta 79.5072
_cell_angle_gamma 100.493
_space_group_name_H-M_alt 'P 1'
_space_group_name_Hall 'P 1'
loop_
    _symmetry_equiv_pos_as_xyz
    x,y,z
loop_
    _atom_site_label
    _atom_site_type_symbol
    _atom_site_fract_x
    _atom_site_fract_y
    _atom_site_fract_z
    _atom_site_occupancy
    Nd1      Nd       0.47542    0.52965    0.07999    1.000
    Nd2      Nd       0.55541    0.07999    0.39036    1.000
    Nd3      Nd       0.94577    0.39036    0.52965    1.000
    Nd4      Nd       0.52458    0.47035    0.92001    1.000
    Nd5      Nd       0.44459    0.92001    0.60964    1.000
    Nd6      Nd       0.05423    0.60964    0.47035    1.000
    C1       C        0.37070    0.12500    0.32190    1.000
    C2       C        0.29990    0.16490    0.27210    1.000
    C3       C        0.36280    0.23130    0.20890    1.000
    C4       C        0.30110    0.27610    0.16580    1.000
    C5       C        0.37370    0.35370    0.10330    1.000
    C6       C        0.17460    0.25140    0.18730    1.000
    C7       C        0.10520    0.18340    0.25220    1.000
    C8       C        0.17210    0.14300    0.29280    1.000
    C9       C        0.30520    0.51060    0.96260    1.000
    C10      C        0.69260    0.32190    0.55310    1.000
    C11      C        0.57200    0.27210    0.56300    1.000
    C12      C        0.57170    0.20890    0.55980    1.000
    C13      C        0.46690    0.16580    0.55810    1.000
    C14      C        0.47700    0.10330    0.54300    1.000
    C15      C        0.36190    0.18730    0.56130    1.000
    C16      C        0.35740    0.25220    0.56440    1.000
    C17      C        0.46490    0.29280    0.56420    1.000
    C18      C        0.26780    0.96260    0.52680    1.000
    C19      C        0.24570    0.55310    0.12500    1.000
    C20      C        0.13500    0.56300    0.16490    1.000
    C21      C        0.13150    0.55980    0.23130    1.000
    C22      C        0.02500    0.55810    0.27610    1.000
    C23      C        0.02000    0.54300    0.35370    1.000
    C24      C        0.92320    0.56130    0.25140    1.000
    C25      C        0.92180    0.56440    0.18340    1.000
    C26      C        0.02910    0.56420    0.14300    1.000
    C27      C        0.79460    0.52680    0.51060    1.000
    C28      C        0.62930    0.87500    0.67810    1.000
    C29      C        0.70010    0.83510    0.72790    1.000
    C30      C        0.63720    0.76870    0.79110    1.000
    C31      C        0.69890    0.72390    0.83420    1.000
    C32      C        0.62630    0.64630    0.89670    1.000
    C33      C        0.82540    0.74860    0.81270    1.000
    C34      C        0.89480    0.81660    0.74780    1.000
    C35      C        0.82790    0.85700    0.70720    1.000
    C36      C        0.69480    0.48940    0.03740    1.000
    C37      C        0.30740    0.67810    0.44690    1.000
    C38      C        0.42800    0.72790    0.43700    1.000
    C39      C        0.42830    0.79110    0.44020    1.000
    C40      C        0.53310    0.83420    0.44190    1.000
    C41      C        0.52300    0.89670    0.45700    1.000
    C42      C        0.63810    0.81270    0.43870    1.000
    C43      C        0.64260    0.74780    0.43560    1.000
    C44      C        0.53510    0.70720    0.43580    1.000
    C45      C        0.73220    0.03740    0.47320    1.000
    C46      C        0.75430    0.44690    0.87500    1.000
    C47      C        0.86500    0.43700    0.83510    1.000
    C48      C        0.86850    0.44020    0.76870    1.000
    C49      C        0.97500    0.44190    0.72390    1.000
    C50      C        0.98000    0.45700    0.64630    1.000
    C51      C        0.07680    0.43870    0.74860    1.000
    C52      C        0.07820    0.43560    0.81660    1.000
    C53      C        0.97090    0.43580    0.85700    1.000
    C54      C        0.20540    0.47320    0.48940    1.000
    I1       I        0.55441    0.26505    0.16981    1.000
    I2       I        0.08419    0.31569    0.11974    1.000
    I3       I        0.07607    0.04484    0.39180    1.000
    I4       I        0.72422    0.16981    0.56514    1.000
    I5       I        0.20393    0.11974    0.56457    1.000
    I6       I        0.46787    0.39180    0.56336    1.000
    I7       I        0.28936    0.56514    0.26505    1.000
    I8       I        0.76850    0.56457    0.31569    1.000
    I9       I        0.03123    0.56336    0.04484    1.000
    I10      I        0.44559    0.73495    0.83019    1.000
    I11      I        0.91581    0.68431    0.88026    1.000
    I12      I        0.92393    0.95516    0.60820    1.000
    I13      I        0.27578    0.83019    0.43486    1.000
    I14      I        0.79607    0.88026    0.43543    1.000
    I15      I        0.53213    0.60820    0.43664    1.000
    I16      I        0.71064    0.43486    0.73495    1.000
    I17      I        0.23150    0.43543    0.68431    1.000
    I18      I        0.96877    0.43664    0.95516    1.000
    N1       N        0.97920    0.16210    0.27290    1.000
    N2       N        0.25210    0.27290    0.56500    1.000
    N3       N        0.81710    0.56500    0.16210    1.000
    N4       N        0.02080    0.83790    0.72710    1.000
    N5       N        0.74790    0.72710    0.43500    1.000
    N6       N        0.18290    0.43500    0.83790    1.000
    O1       O        0.40243    0.14693    0.36144    1.000
    O2       O        0.40232    0.07334    0.31608    1.000
    O3       O        0.39545    0.39858    0.12493    1.000
    O4       O        0.40212    0.36399    0.03943    1.000
    O5       O        0.31300    0.48830    0.91780    1.000
    O6       O        0.38508    0.51554    0.99130    1.000
    O7       O        0.76387    0.36144    0.49163    1.000
    O8       O        0.71840    0.31608    0.61058    1.000
    O9       O        0.52038    0.12493    0.47649    1.000
    O10      O        0.44155    0.03943    0.59658    1.000
    O11      O        0.23080    0.91780    0.59390    1.000
    O12      O        0.37638    0.99130    0.49316    1.000
    O13      O        0.25550    0.49163    0.14693    1.000
    O14      O        0.32898    0.61058    0.07334    1.000
    O15      O        0.99687    0.47649    0.39858    1.000
    O16      O        0.03813    0.59658    0.36399    1.000
    O17      O        0.82470    0.59390    0.48830    1.000
    O18      O        0.86954    0.49316    0.51554    1.000
    O19      O        0.59757    0.85307    0.63856    1.000
    O20      O        0.59768    0.92666    0.68392    1.000
    O21      O        0.60455    0.60142    0.87507    1.000
    O22      O        0.59788    0.63601    0.96057    1.000
    O23      O        0.68700    0.51170    0.08220    1.000
    O24      O        0.61492    0.48446    0.00870    1.000
    O25      O        0.23613    0.63856    0.50837    1.000
    O26      O        0.28160    0.68392    0.38942    1.000
    O27      O        0.47962    0.87507    0.52351    1.000
    O28      O        0.55845    0.96057    0.40342    1.000
    O29      O        0.76920    0.08220    0.40610    1.000
    O30      O        0.62362    0.00870    0.50684    1.000
    O31      O        0.74450    0.50837    0.85307    1.000
    O32      O        0.67102    0.38942    0.92666    1.000
    O33      O        0.00313    0.52351    0.60142    1.000
    O34      O        0.96187    0.40342    0.63601    1.000
    O35      O        0.17530    0.40610    0.51170    1.000
    O36      O        0.13046    0.50684    0.48446    1.000
    H1       H        0.92866    0.11797    0.26545    1.000
    H2       H        0.92850    0.18912    0.29698    1.000
    H3       H        0.17327    0.24225    0.55753    1.000
    H4       H        0.24632    0.32018    0.57295    1.000
    H5       H        0.79095    0.53312    0.13517    1.000
    H6       H        0.75913    0.59736    0.17191    1.000
    H7       H        0.07150    0.81088    0.70302    1.000
    H8       H        0.07134    0.88203    0.73455    1.000
    H9       H        0.75368    0.67982    0.42705    1.000
    H10      H        0.82673    0.75775    0.44247    1.000
    H11      H        0.24087    0.40264    0.82809    1.000
    H12      H        0.20905    0.46688    0.86483    1.000
