# CIF file generated by openbabel 3.1.0, see https://openbabel.org
data_I
_chemical_name_common 'image0'
_cell_length_a 9.489
_cell_length_b 13.441
_cell_length_c 18.529
_cell_angle_alpha 109.804
_cell_angle_beta 90.008
_cell_angle_gamma 107.135
_space_group_name_H-M_alt 'P 1'
_space_group_name_Hall 'P 1'
loop_
    _symmetry_equiv_pos_as_xyz
    x,y,z
loop_
    _atom_site_label
    _atom_site_type_symbol
    _atom_site_fract_x
    _atom_site_fract_y
    _atom_site_fract_z
    _atom_site_occupancy
    Co1      Co       0.23010    0.48802    0.31735    1.000
    Co2      Co       0.72450    0.47660    0.17144    1.000
    O1       O        0.37590    0.39700    0.29300    1.000
    O2       O        0.38250    0.58080    0.26260    1.000
    O3       O        0.58410    0.39580    0.23770    1.000
    O4       O        0.58280    0.57270    0.20130    1.000
    O5       O        0.08730    0.58420    0.32850    1.000
    O6       O        0.09220    0.40000    0.21310    1.000
    O7       O        0.87520    0.57730    0.27190    1.000
    O8       O        0.87270    0.38840    0.15980    1.000
    N1       N        0.34220    0.59500    0.42810    1.000
    N2       N        0.52150    0.90440    0.69070    1.000
    N3       N        0.08830    0.36820    0.35730    1.000
    N4       N        0.93460    0.05090    0.45750    1.000
    N5       N        0.58690    0.35410    0.07340    1.000
    N6       N        0.41680    0.02370    0.82990    1.000
    N7       N        0.83420    0.58350    0.11200    1.000
    N8       N        0.02980    0.91690    0.02480    1.000
    C1       C        0.48080    0.43440    0.25690    1.000
    C2       C        0.48230    0.53590    0.23840    1.000
    C3       C        0.97850    0.54010    0.27620    1.000
    C4       C        0.98190    0.43240    0.20920    1.000
    C5       C        0.39860    0.70620    0.44360    1.000
    H1       H        0.38510    0.73360    0.40390    1.000
    C6       C        0.47360    0.78100    0.51250    1.000
    H2       H        0.50890    0.85830    0.52090    1.000
    C7       C        0.49720    0.74140    0.57000    1.000
    C8       C        0.43930    0.63180    0.55670    1.000
    H3       H        0.44940    0.60360    0.59640    1.000
    C9       C        0.36510    0.56020    0.48530    1.000
    H4       H        0.32880    0.48280    0.47650    1.000
    C10      C        0.58870    0.81920    0.64640    1.000
    H5       H        0.59940    0.77470    0.67790    1.000
    H6       H        0.68920    0.85670    0.63630    1.000
    C11      C        0.38620    0.85120    0.71940    1.000
    H7       H        0.41120    0.81470    0.75360    1.000
    H8       H        0.31570    0.79340    0.67540    1.000
    C12      C        0.62410    0.98330    0.75810    1.000
    H9       H        0.71940    0.01810    0.74140    1.000
    H10      H        0.64410    0.94370    0.79130    1.000
    C13      C        0.00790    0.39320    0.41660    1.000
    H11      H        0.00180    0.46670    0.43720    1.000
    C14      C        0.93400    0.31670    0.44850    1.000
    H12      H        0.88110    0.33910    0.49150    1.000
    C15      C        0.93500    0.20830    0.41970    1.000
    C16      C        0.00930    0.18340    0.35490    1.000
    H13      H        0.00710    0.10860    0.32910    1.000
    C17      C        0.08440    0.26240    0.32750    1.000
    H14      H        0.13760    0.24140    0.28450    1.000
    C18      C        0.85220    0.12580    0.45470    1.000
    H15      H        0.83410    0.16600    0.50770    1.000
    H16      H        0.75480    0.08170    0.42390    1.000
    C19      C        0.84310    0.96750    0.48860    1.000
    H17      H        0.74870    0.92460    0.45460    1.000
    H18      H        0.81910    0.00620    0.54050    1.000
    C20      C        0.07590    0.11040    0.50650    1.000
    H19      H        0.05740    0.15220    0.55900    1.000
    H20      H        0.13850    0.16480    0.48530    1.000
    C21      C        0.58270    0.24850    0.05570    1.000
    H21      H        0.63220    0.22880    0.09080    1.000
    C22      C        0.50700    0.16660    0.98690    1.000
    H22      H        0.50720    0.09200    0.97420    1.000
    C23      C        0.43240    0.19480    0.93790    1.000
    C24      C        0.43300    0.30280    0.95880    1.000
    H23      H        0.37900    0.32410    0.92660    1.000
    C25      C        0.51110    0.37870    0.02540    1.000
    H24      H        0.51180    0.45370    0.03870    1.000
    C26      C        0.34610    0.11020    0.86330    1.000
    H25      H        0.24380    0.07530    0.87270    1.000
    H26      H        0.34000    0.14770    0.82620    1.000
    C27      C        0.31630    0.93560    0.76250    1.000
    H27      H        0.22430    0.89850    0.78060    1.000
    H28      H        0.28870    0.97010    0.72750    1.000
    C28      C        0.55780    0.07220    0.80320    1.000
    H29      H        0.62870    0.12630    0.84830    1.000
    H30      H        0.54050    0.11280    0.77010    1.000
    C29      C        0.85730    0.55280    0.03750    1.000
    H31      H        0.81930    0.47590    0.00680    1.000
    C30      C        0.93110    0.62350    0.00270    1.000
    H32      H        0.94510    0.59560    0.94970    1.000
    C31      C        0.98610    0.73690    0.04440    1.000
    C32      C        0.96440    0.77120    0.12190    1.000
    H33      H        0.00100    0.84760    0.15370    1.000
    C33      C        0.88790    0.69160    0.15220    1.000
    H34      H        0.87310    0.71640    0.20520    1.000
    C34      C        0.08140    0.82080    0.01330    1.000
    H35      H        0.18410    0.84730    0.03870    1.000
    H36      H        0.08390    0.78380    0.95730    1.000
    C35      C        0.90390    0.89110    0.96920    1.000
    H37      H        0.82170    0.82890    0.97390    1.000
    H38      H        0.93300    0.86690    0.91630    1.000
    C36      C        0.14810    0.01020    0.01790    1.000
    H39      H        0.18130    0.98790    0.96580    1.000
    H40      H        0.23390    0.03030    0.05620    1.000
    Co3      Co       0.76990    0.51198    0.68265    1.000
    Co4      Co       0.27550    0.52340    0.82856    1.000
    O9       O        0.62410    0.60300    0.70700    1.000
    O10      O        0.61750    0.41920    0.73740    1.000
    O11      O        0.41590    0.60420    0.76230    1.000
    O12      O        0.41720    0.42730    0.79870    1.000
    O13      O        0.91270    0.41580    0.67150    1.000
    O14      O        0.90780    0.60000    0.78690    1.000
    O15      O        0.12480    0.42270    0.72810    1.000
    O16      O        0.12730    0.61160    0.84020    1.000
    N9       N        0.65780    0.40500    0.57190    1.000
    N10      N        0.47850    0.09560    0.30930    1.000
    N11      N        0.91170    0.63180    0.64270    1.000
    N12      N        0.06540    0.94910    0.54250    1.000
    N13      N        0.41310    0.64590    0.92660    1.000
    N14      N        0.58320    0.97630    0.17010    1.000
    N15      N        0.16580    0.41650    0.88800    1.000
    N16      N        0.97020    0.08310    0.97520    1.000
    C37      C        0.51920    0.56560    0.74310    1.000
    C38      C        0.51770    0.46410    0.76160    1.000
    C39      C        0.02150    0.45990    0.72380    1.000
    C40      C        0.01810    0.56760    0.79080    1.000
    C41      C        0.60140    0.29380    0.55640    1.000
    H41      H        0.61490    0.26640    0.59610    1.000
    C42      C        0.52640    0.21900    0.48750    1.000
    H42      H        0.49110    0.14170    0.47910    1.000
    C43      C        0.50280    0.25860    0.43000    1.000
    C44      C        0.56070    0.36820    0.44330    1.000
    H43      H        0.55060    0.39640    0.40360    1.000
    C45      C        0.63490    0.43980    0.51470    1.000
    H44      H        0.67120    0.51720    0.52350    1.000
    C46      C        0.41130    0.18080    0.35360    1.000
    H45      H        0.40060    0.22530    0.32210    1.000
    H46      H        0.31080    0.14330    0.36370    1.000
    C47      C        0.61380    0.14880    0.28060    1.000
    H47      H        0.58880    0.18530    0.24640    1.000
    H48      H        0.68430    0.20660    0.32460    1.000
    C48      C        0.37590    0.01670    0.24190    1.000
    H49      H        0.28060    0.98190    0.25860    1.000
    H50      H        0.35590    0.05630    0.20870    1.000
    C49      C        0.99210    0.60680    0.58340    1.000
    H51      H        0.99820    0.53330    0.56280    1.000
    C50      C        0.06600    0.68330    0.55150    1.000
    H52      H        0.11890    0.66090    0.50850    1.000
    C51      C        0.06500    0.79170    0.58030    1.000
    C52      C        0.99070    0.81660    0.64510    1.000
    H53      H        0.99290    0.89140    0.67090    1.000
    C53      C        0.91560    0.73760    0.67250    1.000
    H54      H        0.86240    0.75860    0.71550    1.000
    C54      C        0.14780    0.87420    0.54530    1.000
    H55      H        0.16590    0.83400    0.49230    1.000
    H56      H        0.24520    0.91830    0.57610    1.000
    C55      C        0.15690    0.03250    0.51140    1.000
    H57      H        0.25130    0.07540    0.54540    1.000
    H58      H        0.18090    0.99380    0.45950    1.000
    C56      C        0.92410    0.88960    0.49350    1.000
    H59      H        0.94260    0.84780    0.44100    1.000
    H60      H        0.86150    0.83520    0.51470    1.000
    C57      C        0.41730    0.75150    0.94430    1.000
    H61      H        0.36780    0.77120    0.90920    1.000
    C58      C        0.49300    0.83340    0.01310    1.000
    H62      H        0.49280    0.90800    0.02580    1.000
    C59      C        0.56760    0.80520    0.06210    1.000
    C60      C        0.56700    0.69720    0.04120    1.000
    H63      H        0.62100    0.67590    0.07340    1.000
    C61      C        0.48890    0.62130    0.97460    1.000
    H64      H        0.48820    0.54630    0.96130    1.000
    C62      C        0.65390    0.88980    0.13670    1.000
    H65      H        0.75620    0.92470    0.12730    1.000
    H66      H        0.66000    0.85230    0.17380    1.000
    C63      C        0.68370    0.06440    0.23750    1.000
    H67      H        0.77570    0.10150    0.21940    1.000
    H68      H        0.71130    0.02990    0.27250    1.000
    C64      C        0.44220    0.92780    0.19680    1.000
    H69      H        0.37130    0.87370    0.15170    1.000
    H70      H        0.45950    0.88720    0.22990    1.000
    C65      C        0.14270    0.44720    0.96250    1.000
    H71      H        0.18070    0.52410    0.99320    1.000
    C66      C        0.06890    0.37650    0.99730    1.000
    H72      H        0.05490    0.40440    0.05030    1.000
    C67      C        0.01390    0.26310    0.95560    1.000
    C68      C        0.03560    0.22880    0.87810    1.000
    H73      H        0.99900    0.15240    0.84630    1.000
    C69      C        0.11210    0.30840    0.84780    1.000
    H74      H        0.12690    0.28360    0.79480    1.000
    C70      C        0.91860    0.17920    0.98670    1.000
    H75      H        0.81590    0.15270    0.96130    1.000
    H76      H        0.91610    0.21620    0.04270    1.000
    C71      C        0.09610    0.10890    0.03080    1.000
    H77      H        0.17830    0.17110    0.02610    1.000
    H78      H        0.06700    0.13310    0.08370    1.000
    C72      C        0.85190    0.98980    0.98210    1.000
    H79      H        0.81870    0.01210    0.03420    1.000
    H80      H        0.76610    0.96970    0.94380    1.000
