# CIF file generated by openbabel 3.1.0, see https://openbabel.org
data_I
_chemical_name_common 'image0'
_cell_length_a 7.8334
_cell_length_b 17.2763
_cell_length_c 9.445
_cell_angle_alpha 90
_cell_angle_beta 100.475
_cell_angle_gamma 90
_space_group_name_H-M_alt 'P 1'
_space_group_name_Hall 'P 1'
loop_
    _symmetry_equiv_pos_as_xyz
    x,y,z
loop_
    _atom_site_label
    _atom_site_type_symbol
    _atom_site_fract_x
    _atom_site_fract_y
    _atom_site_fract_z
    _atom_site_occupancy
    Zn1      Zn       0.38862    0.32616    0.26230    1.000
    Zn2      Zn       0.76805    0.25055    0.48981    1.000
    O1       O        0.94440    0.32906    0.57680    1.000
    O2       O        0.58710    0.16761    0.42430    1.000
    O3       O        0.56930    0.89620    0.56620    1.000
    O4       O        0.19790    0.70454    0.85390    1.000
    O5       O        0.41700    0.81118    0.41520    1.000
    C1       C        0.42710    0.94101    0.33680    1.000
    C2       C        0.32170    0.92468    0.20520    1.000
    H1       H        0.29110    0.87270    0.17970    1.000
    C3       C        0.13020    0.66422    0.74640    1.000
    O6       O        0.38370    0.21211    0.24450    1.000
    C4       C        0.41480    0.07704    0.27860    1.000
    C5       C        0.30440    0.06156    0.14870    1.000
    H2       H        0.25880    0.10270    0.08630    1.000
    C6       C        0.05110    0.45076    0.66430    1.000
    C7       C        0.22610    0.46294    0.90170    1.000
    C8       C        0.04620    0.53127    0.65110    1.000
    H3       H        0.98420    0.55450    0.56590    1.000
    C9       C        0.14210    0.41697    0.79010    1.000
    H4       H        0.14650    0.36220    0.79920    1.000
    C10      C        0.21980    0.54327    0.88710    1.000
    H5       H        0.27670    0.57480    0.96370    1.000
    C11      C        0.31050    0.42710    0.04190    1.000
    C12      C        0.26130    0.98453    0.11100    1.000
    C13      C        0.47680    0.01729    0.37170    1.000
    H6       H        0.55330    0.02820    0.45950    1.000
    C14      C        0.13180    0.57778    0.76230    1.000
    C15      C        0.46610    0.15894    0.31900    1.000
    O7       O        0.87900    0.43129    0.43190    1.000
    O8       O        0.07590    0.03015    0.90710    1.000
    H7       H        0.01000    0.01790    0.82990    1.000
    O9       O        0.10870    0.90208    0.92870    1.000
    O10      O        0.31790    0.35455    0.05220    1.000
    O11      O        0.36480    0.47037    0.14560    1.000
    C16      C        0.95030    0.40054    0.54870    1.000
    C17      C        0.14280    0.96757    0.97280    1.000
    C18      C        0.47560    0.87785    0.44690    1.000
    O12      O        0.06290    0.69352    0.62490    1.000
    Zn3      Zn       0.61138    0.82616    0.73770    1.000
    Zn4      Zn       0.23195    0.75055    0.51019    1.000
    O13      O        0.05560    0.82906    0.42320    1.000
    O14      O        0.41290    0.66761    0.57570    1.000
    O15      O        0.43070    0.39620    0.43380    1.000
    O16      O        0.80210    0.20454    0.14610    1.000
    O17      O        0.58300    0.31118    0.58480    1.000
    C19      C        0.57290    0.44101    0.66320    1.000
    C20      C        0.67830    0.42468    0.79480    1.000
    H8       H        0.70890    0.37270    0.82030    1.000
    C21      C        0.86980    0.16422    0.25360    1.000
    O18      O        0.61630    0.71211    0.75550    1.000
    C22      C        0.58520    0.57704    0.72140    1.000
    C23      C        0.69560    0.56156    0.85130    1.000
    H9       H        0.74120    0.60270    0.91370    1.000
    C24      C        0.94890    0.95076    0.33570    1.000
    C25      C        0.77390    0.96294    0.09830    1.000
    C26      C        0.95380    0.03127    0.34890    1.000
    H10      H        0.01580    0.05450    0.43410    1.000
    C27      C        0.85790    0.91697    0.20990    1.000
    H11      H        0.85350    0.86220    0.20080    1.000
    C28      C        0.78020    0.04327    0.11290    1.000
    H12      H        0.72330    0.07480    0.03630    1.000
    C29      C        0.68950    0.92710    0.95810    1.000
    C30      C        0.73870    0.48453    0.88900    1.000
    C31      C        0.52320    0.51729    0.62830    1.000
    H13      H        0.44670    0.52820    0.54050    1.000
    C32      C        0.86820    0.07778    0.23770    1.000
    C33      C        0.53390    0.65894    0.68100    1.000
    O19      O        0.12100    0.93129    0.56810    1.000
    O20      O        0.92410    0.53015    0.09290    1.000
    H14      H        0.99000    0.51790    0.17010    1.000
    O21      O        0.89130    0.40208    0.07130    1.000
    O22      O        0.68210    0.85455    0.94780    1.000
    O23      O        0.63520    0.97037    0.85440    1.000
    C34      C        0.04970    0.90054    0.45130    1.000
    C35      C        0.85720    0.46757    0.02720    1.000
    C36      C        0.52440    0.37785    0.55310    1.000
    O24      O        0.93710    0.19352    0.37510    1.000
