# CIF file generated by openbabel 3.1.0, see https://openbabel.org
data_I
_chemical_name_common 'image0'
_cell_length_a 9.0494
_cell_length_b 17.475
_cell_length_c 10.5357
_cell_angle_alpha 90
_cell_angle_beta 106.359
_cell_angle_gamma 90
_space_group_name_H-M_alt 'P 1'
_space_group_name_Hall 'P 1'
loop_
    _symmetry_equiv_pos_as_xyz
    x,y,z
loop_
    _atom_site_label
    _atom_site_type_symbol
    _atom_site_fract_x
    _atom_site_fract_y
    _atom_site_fract_z
    _atom_site_occupancy
    C1       C        0.12040    0.14460    0.23120    1.000
    N1       N        0.08860    0.09290    0.16430    1.000
    C2       C        0.82040    0.14620    0.79050    1.000
    N2       N        0.85590    0.09510    0.85680    1.000
    N3       N        0.21800    0.03040    0.93430    1.000
    H1       H        0.22260    0.08180    0.93250    1.000
    H2       H        0.29960    0.01490    0.00010    1.000
    C3       C        0.24410    0.00410    0.81410    1.000
    H3       H        0.18540    0.95620    0.80180    1.000
    C4       C        0.15760    0.04570    0.69700    1.000
    H4       H        0.18870    0.09900    0.70610    1.000
    H5       H        0.04890    0.04350    0.69170    1.000
    C5       C        0.18100    0.01420    0.56760    1.000
    H6       H        0.13060    0.96480    0.54780    1.000
    H7       H        0.13450    0.04870    0.49520    1.000
    C6       C        0.35000    0.00600    0.58170    1.000
    H8       H        0.40340    0.05360    0.61180    1.000
    H9       H        0.36680    0.99180    0.49800    1.000
    C7       C        0.40400    0.94310    0.68390    1.000
    H10      H        0.50890    0.92830    0.68840    1.000
    H11      H        0.33860    0.89840    0.66000    1.000
    C8       C        0.39680    0.97440    0.81690    1.000
    H12      H        0.42450    0.93400    0.88250    1.000
    H13      H        0.47200    0.01500    0.84400    1.000
    C9       C        0.87960    0.64460    0.76880    1.000
    N4       N        0.91140    0.59290    0.83570    1.000
    C10      C        0.17960    0.64620    0.20950    1.000
    N5       N        0.14410    0.59510    0.14320    1.000
    N6       N        0.78200    0.53040    0.06570    1.000
    H14      H        0.77740    0.58180    0.06750    1.000
    H15      H        0.70040    0.51490    0.99990    1.000
    C11      C        0.75590    0.50410    0.18590    1.000
    H16      H        0.81460    0.45620    0.19820    1.000
    C12      C        0.84240    0.54570    0.30300    1.000
    H17      H        0.81130    0.59900    0.29390    1.000
    H18      H        0.95110    0.54350    0.30830    1.000
    C13      C        0.81900    0.51420    0.43240    1.000
    H19      H        0.86940    0.46480    0.45220    1.000
    H20      H        0.86550    0.54870    0.50480    1.000
    C14      C        0.65000    0.50600    0.41830    1.000
    H21      H        0.59660    0.55360    0.38820    1.000
    H22      H        0.63320    0.49180    0.50200    1.000
    C15      C        0.59600    0.44310    0.31610    1.000
    H23      H        0.49110    0.42830    0.31160    1.000
    H24      H        0.66140    0.39840    0.34000    1.000
    C16      C        0.60320    0.47440    0.18310    1.000
    H25      H        0.57550    0.43400    0.11750    1.000
    H26      H        0.52800    0.51500    0.15600    1.000
    C17      C        0.87960    0.85540    0.76880    1.000
    N7       N        0.91140    0.90710    0.83570    1.000
    C18      C        0.17960    0.85380    0.20950    1.000
    N8       N        0.14410    0.90490    0.14320    1.000
    N9       N        0.78200    0.96960    0.06570    1.000
    H27      H        0.77740    0.91820    0.06750    1.000
    H28      H        0.70040    0.98510    0.99990    1.000
    C19      C        0.75590    0.99590    0.18590    1.000
    H29      H        0.81460    0.04380    0.19820    1.000
    C20      C        0.84240    0.95430    0.30300    1.000
    H30      H        0.81130    0.90100    0.29390    1.000
    H31      H        0.95110    0.95650    0.30830    1.000
    C21      C        0.81900    0.98580    0.43240    1.000
    H32      H        0.86940    0.03520    0.45220    1.000
    H33      H        0.86550    0.95130    0.50480    1.000
    C22      C        0.65000    0.99400    0.41830    1.000
    H34      H        0.59660    0.94640    0.38820    1.000
    H35      H        0.63320    0.00820    0.50200    1.000
    C23      C        0.59600    0.05690    0.31610    1.000
    H36      H        0.49110    0.07170    0.31160    1.000
    H37      H        0.66140    0.10160    0.34000    1.000
    C24      C        0.60320    0.02560    0.18310    1.000
    H38      H        0.57550    0.06600    0.11750    1.000
    H39      H        0.52800    0.98500    0.15600    1.000
    C25      C        0.12040    0.35540    0.23120    1.000
    N10      N        0.08860    0.40710    0.16430    1.000
    C26      C        0.82040    0.35380    0.79050    1.000
    N11      N        0.85590    0.40490    0.85680    1.000
    N12      N        0.21800    0.46960    0.93430    1.000
    H40      H        0.22260    0.41820    0.93250    1.000
    H41      H        0.29960    0.48510    0.00010    1.000
    C27      C        0.24410    0.49590    0.81410    1.000
    H42      H        0.18540    0.54380    0.80180    1.000
    C28      C        0.15760    0.45430    0.69700    1.000
    H43      H        0.18870    0.40100    0.70610    1.000
    H44      H        0.04890    0.45650    0.69170    1.000
    C29      C        0.18100    0.48580    0.56760    1.000
    H45      H        0.13060    0.53520    0.54780    1.000
    H46      H        0.13450    0.45130    0.49520    1.000
    C30      C        0.35000    0.49400    0.58170    1.000
    H47      H        0.40340    0.44640    0.61180    1.000
    H48      H        0.36680    0.50820    0.49800    1.000
    C31      C        0.40400    0.55690    0.68390    1.000
    H49      H        0.50890    0.57170    0.68840    1.000
    H50      H        0.33860    0.60160    0.66000    1.000
    C32      C        0.39680    0.52560    0.81690    1.000
    H51      H        0.42450    0.56600    0.88250    1.000
    H52      H        0.47200    0.48500    0.84400    1.000
    Cd1      Cd       0.00000    0.00000    0.00000    1.000
    Cd2      Cd       0.00000    0.50000    0.00000    1.000
    Cd3      Cd       0.16794    0.25000    0.34898    1.000
    Cd4      Cd       0.77230    0.25000    0.66831    1.000
    C33      C        0.40890    0.25000    0.46890    1.000
    N13      N        0.53310    0.25000    0.53200    1.000
    C34      C        0.02120    0.25000    0.48290    1.000
    N14      N        0.93720    0.25000    0.54160    1.000
    Cd5      Cd       0.83206    0.75000    0.65102    1.000
    Cd6      Cd       0.22770    0.75000    0.33169    1.000
    C35      C        0.59110    0.75000    0.53110    1.000
    N15      N        0.46690    0.75000    0.46800    1.000
    C36      C        0.97880    0.75000    0.51710    1.000
    N16      N        0.06280    0.75000    0.45840    1.000
