# CIF file generated by openbabel 3.1.0, see https://openbabel.org
data_I
_chemical_name_common 'image0'
_cell_length_a 15.772
_cell_length_b 26.984
_cell_length_c 19.254
_cell_angle_alpha 90
_cell_angle_beta 90.019
_cell_angle_gamma 90
_space_group_name_H-M_alt 'P 1'
_space_group_name_Hall 'P 1'
loop_
    _symmetry_equiv_pos_as_xyz
    x,y,z
loop_
    _atom_site_label
    _atom_site_type_symbol
    _atom_site_fract_x
    _atom_site_fract_y
    _atom_site_fract_z
    _atom_site_occupancy
    Fe1      Fe       0.04134    0.61800    0.78746    1.000
    Fe2      Fe       0.53448    0.86668    0.20634    1.000
    S1       S        0.31931    0.93774    0.05448    1.000
    S2       S        0.76484    0.77922    0.31668    1.000
    S3       S        0.28149    0.71602    0.71409    1.000
    S4       S        0.84529    0.56265    0.96182    1.000
    C1       C        0.20020    0.67970    0.72695    1.000
    C2       C        0.90250    0.57499    0.89327    1.000
    C3       C        0.39430    0.91670    0.10440    1.000
    C4       C        0.68170    0.80842    0.28870    1.000
    N1       N        0.14234    0.65427    0.73583    1.000
    N2       N        0.94374    0.58447    0.84533    1.000
    N3       N        0.44785    0.90183    0.14048    1.000
    N4       N        0.62288    0.82938    0.26850    1.000
    N5       N        0.62983    0.87181    0.12338    1.000
    N6       N        0.99923    0.69180    0.82342    1.000
    N7       N        0.92060    0.04540    0.75591    1.000
    N8       N        0.84398    0.82949    0.94041    1.000
    N9       N        0.81576    0.91449    0.91961    1.000
    N10      N        0.91259    0.87087    0.84771    1.000
    C5       C        0.67410    0.83113    0.10661    1.000
    H1       H        0.66600    0.80190    0.13330    1.000
    C6       C        0.73090    0.82997    0.05226    1.000
    H2       H        0.76070    0.80030    0.04160    1.000
    C7       C        0.74415    0.87242    0.01343    1.000
    C8       C        0.69870    0.91487    0.03105    1.000
    H3       H        0.70650    0.94470    0.00570    1.000
    C9       C        0.64240    0.91301    0.08569    1.000
    H4       H        0.61120    0.94200    0.09710    1.000
    C10      C        0.96830    0.69882    0.88739    1.000
    H5       H        0.96820    0.67150    0.91860    1.000
    C11      C        0.93660    0.74366    0.91063    1.000
    H6       H        0.91590    0.74710    0.95670    1.000
    C12      C        0.93583    0.78336    0.86507    1.000
    C13      C        0.96940    0.77695    0.79874    1.000
    H7       H        0.97110    0.80380    0.76690    1.000
    C14      C        0.00010    0.73092    0.78011    1.000
    H8       H        0.02280    0.72670    0.73480    1.000
    C15      C        0.97220    0.00625    0.75085    1.000
    H9       H        0.02100    0.00900    0.72220    1.000
    C16      C        0.95830    0.96190    0.78504    1.000
    H10      H        0.99600    0.93480    0.77920    1.000
    C17      C        0.88810    0.95796    0.82808    1.000
    C18      C        0.83450    0.99832    0.83429    1.000
    H11      H        0.78620    0.99680    0.86370    1.000
    C19      C        0.85250    0.04069    0.79712    1.000
    H12      H        0.81470    0.06800    0.80090    1.000
    C20      C        0.80500    0.87226    0.95467    1.000
    C21      C        0.89560    0.83072    0.88581    1.000
    C22      C        0.87120    0.91180    0.86741    1.000
    N11      N        0.12562    0.61303    0.87847    1.000
    N12      N        0.49731    0.79127    0.17078    1.000
    N13      N        0.43039    0.43654    0.24034    1.000
    N14      N        0.33930    0.65257    0.06052    1.000
    N15      N        0.40683    0.61224    0.15442    1.000
    N16      N        0.31641    0.56697    0.07889    1.000
    C23      C        0.16840    0.65363    0.89778    1.000
    H13      H        0.15830    0.68380    0.87360    1.000
    C24      C        0.22630    0.65347    0.95118    1.000
    H14      H        0.25550    0.68300    0.96350    1.000
    C25      C        0.24170    0.60960    0.98695    1.000
    C26      C        0.19720    0.56755    0.96736    1.000
    H15      H        0.20600    0.53690    0.99050    1.000
    C27      C        0.13990    0.57120    0.91361    1.000
    H16      H        0.10890    0.54240    0.90080    1.000
    C28      C        0.46720    0.78302    0.10715    1.000
    H17      H        0.46880    0.80930    0.07430    1.000
    C29      C        0.43380    0.73801    0.08676    1.000
    H18      H        0.41320    0.73360    0.04080    1.000
    C30      C        0.43050    0.69950    0.13413    1.000
    C31      C        0.46360    0.70740    0.20023    1.000
    H19      H        0.46430    0.68150    0.23360    1.000
    C32      C        0.49530    0.75356    0.21615    1.000
    H20      H        0.51690    0.75900    0.26160    1.000
    C33      C        0.45940    0.48040    0.26201    1.000
    H21      H        0.49500    0.48120    0.30180    1.000
    C34      C        0.44030    0.52473    0.22968    1.000
    H22      H        0.46210    0.55510    0.24720    1.000
    C35      C        0.38880    0.52432    0.17111    1.000
    C36      C        0.35750    0.47915    0.14898    1.000
    H23      H        0.32110    0.47740    0.10970    1.000
    C37      C        0.37950    0.43671    0.18420    1.000
    H24      H        0.35760    0.40600    0.16810    1.000
    C38      C        0.30220    0.60946    0.04544    1.000
    C39      C        0.39040    0.65189    0.11547    1.000
    C40      C        0.36910    0.57044    0.13314    1.000
    Fe3      Fe       0.95866    0.11800    0.71254    1.000
    Fe4      Fe       0.46552    0.36668    0.29366    1.000
    S5       S        0.68069    0.43774    0.44552    1.000
    S6       S        0.23516    0.27922    0.18332    1.000
    S7       S        0.71851    0.21602    0.78591    1.000
    S8       S        0.15471    0.06265    0.53818    1.000
    C41      C        0.79980    0.17970    0.77305    1.000
    C42      C        0.09750    0.07499    0.60673    1.000
    C43      C        0.60570    0.41670    0.39560    1.000
    C44      C        0.31830    0.30842    0.21130    1.000
    N17      N        0.85766    0.15427    0.76417    1.000
    N18      N        0.05626    0.08447    0.65467    1.000
    N19      N        0.55215    0.40183    0.35952    1.000
    N20      N        0.37712    0.32938    0.23150    1.000
    N21      N        0.37017    0.37181    0.37662    1.000
    N22      N        0.00077    0.19180    0.67658    1.000
    N23      N        0.07940    0.54540    0.74409    1.000
    N24      N        0.15602    0.32949    0.55959    1.000
    N25      N        0.18424    0.41449    0.58039    1.000
    N26      N        0.08741    0.37087    0.65229    1.000
    C45      C        0.32590    0.33113    0.39339    1.000
    H25      H        0.33400    0.30190    0.36670    1.000
    C46      C        0.26910    0.32997    0.44774    1.000
    H26      H        0.23930    0.30030    0.45840    1.000
    C47      C        0.25585    0.37242    0.48657    1.000
    C48      C        0.30130    0.41487    0.46895    1.000
    H27      H        0.29350    0.44470    0.49430    1.000
    C49      C        0.35760    0.41301    0.41431    1.000
    H28      H        0.38880    0.44200    0.40290    1.000
    C50      C        0.03170    0.19882    0.61261    1.000
    H29      H        0.03180    0.17150    0.58140    1.000
    C51      C        0.06340    0.24366    0.58937    1.000
    H30      H        0.08410    0.24710    0.54330    1.000
    C52      C        0.06417    0.28336    0.63493    1.000
    C53      C        0.03060    0.27695    0.70126    1.000
    H31      H        0.02890    0.30380    0.73310    1.000
    C54      C        0.99990    0.23092    0.71989    1.000
    H32      H        0.97720    0.22670    0.76520    1.000
    C55      C        0.02780    0.50625    0.74915    1.000
    H33      H        0.97900    0.50900    0.77780    1.000
    C56      C        0.04170    0.46190    0.71496    1.000
    H34      H        0.00400    0.43480    0.72080    1.000
    C57      C        0.11190    0.45796    0.67192    1.000
    C58      C        0.16550    0.49832    0.66571    1.000
    H35      H        0.21380    0.49680    0.63630    1.000
    C59      C        0.14750    0.54069    0.70288    1.000
    H36      H        0.18530    0.56800    0.69910    1.000
    C60      C        0.19500    0.37226    0.54533    1.000
    C61      C        0.10440    0.33072    0.61419    1.000
    C62      C        0.12880    0.41180    0.63259    1.000
    N27      N        0.87438    0.11303    0.62153    1.000
    N28      N        0.50269    0.29127    0.32922    1.000
    N29      N        0.56961    0.93654    0.25966    1.000
    N30      N        0.66070    0.15257    0.43948    1.000
    N31      N        0.59317    0.11224    0.34558    1.000
    N32      N        0.68359    0.06697    0.42111    1.000
    C63      C        0.83160    0.15363    0.60222    1.000
    H37      H        0.84170    0.18380    0.62640    1.000
    C64      C        0.77370    0.15347    0.54882    1.000
    H38      H        0.74450    0.18300    0.53650    1.000
    C65      C        0.75830    0.10960    0.51305    1.000
    C66      C        0.80280    0.06755    0.53264    1.000
    H39      H        0.79400    0.03690    0.50950    1.000
    C67      C        0.86010    0.07120    0.58639    1.000
    H40      H        0.89110    0.04240    0.59920    1.000
    C68      C        0.53280    0.28302    0.39285    1.000
    H41      H        0.53120    0.30930    0.42570    1.000
    C69      C        0.56620    0.23801    0.41324    1.000
    H42      H        0.58680    0.23360    0.45920    1.000
    C70      C        0.56950    0.19950    0.36587    1.000
    C71      C        0.53640    0.20740    0.29977    1.000
    H43      H        0.53570    0.18150    0.26640    1.000
    C72      C        0.50470    0.25356    0.28385    1.000
    H44      H        0.48310    0.25900    0.23840    1.000
    C73      C        0.54060    0.98040    0.23799    1.000
    H45      H        0.50500    0.98120    0.19820    1.000
    C74      C        0.55970    0.02473    0.27032    1.000
    H46      H        0.53790    0.05510    0.25280    1.000
    C75      C        0.61120    0.02432    0.32889    1.000
    C76      C        0.64250    0.97915    0.35102    1.000
    H47      H        0.67890    0.97740    0.39030    1.000
    C77      C        0.62050    0.93671    0.31580    1.000
    H48      H        0.64240    0.90600    0.33190    1.000
    C78      C        0.69780    0.10946    0.45456    1.000
    C79      C        0.60960    0.15189    0.38453    1.000
    C80      C        0.63090    0.07044    0.36686    1.000
    Fe5      Fe       0.95866    0.38200    0.21254    1.000
    Fe6      Fe       0.46552    0.13332    0.79366    1.000
    S9       S        0.68069    0.06226    0.94552    1.000
    S10      S        0.23516    0.22078    0.68332    1.000
    S11      S        0.71851    0.28398    0.28591    1.000
    S12      S        0.15471    0.43735    0.03818    1.000
    C81      C        0.79980    0.32030    0.27305    1.000
    C82      C        0.09750    0.42501    0.10673    1.000
    C83      C        0.60570    0.08330    0.89560    1.000
    C84      C        0.31830    0.19158    0.71130    1.000
    N33      N        0.85766    0.34573    0.26417    1.000
    N34      N        0.05626    0.41553    0.15467    1.000
    N35      N        0.55215    0.09817    0.85952    1.000
    N36      N        0.37712    0.17062    0.73150    1.000
    N37      N        0.37017    0.12819    0.87662    1.000
    N38      N        0.00077    0.30820    0.17658    1.000
    N39      N        0.07940    0.95460    0.24409    1.000
    N40      N        0.15602    0.17051    0.05959    1.000
    N41      N        0.18424    0.08551    0.08039    1.000
    N42      N        0.08741    0.12913    0.15229    1.000
    C85      C        0.32590    0.16887    0.89339    1.000
    H49      H        0.33400    0.19810    0.86670    1.000
    C86      C        0.26910    0.17003    0.94774    1.000
    H50      H        0.23930    0.19970    0.95840    1.000
    C87      C        0.25585    0.12758    0.98657    1.000
    C88      C        0.30130    0.08513    0.96895    1.000
    H51      H        0.29350    0.05530    0.99430    1.000
    C89      C        0.35760    0.08699    0.91431    1.000
    H52      H        0.38880    0.05800    0.90290    1.000
    C90      C        0.03170    0.30118    0.11261    1.000
    H53      H        0.03180    0.32850    0.08140    1.000
    C91      C        0.06340    0.25634    0.08937    1.000
    H54      H        0.08410    0.25290    0.04330    1.000
    C92      C        0.06417    0.21664    0.13493    1.000
    C93      C        0.03060    0.22305    0.20126    1.000
    H55      H        0.02890    0.19620    0.23310    1.000
    C94      C        0.99990    0.26908    0.21989    1.000
    H56      H        0.97720    0.27330    0.26520    1.000
    C95      C        0.02780    0.99375    0.24915    1.000
    H57      H        0.97900    0.99100    0.27780    1.000
    C96      C        0.04170    0.03810    0.21496    1.000
    H58      H        0.00400    0.06520    0.22080    1.000
    C97      C        0.11190    0.04204    0.17192    1.000
    C98      C        0.16550    0.00168    0.16571    1.000
    H59      H        0.21380    0.00320    0.13630    1.000
    C99      C        0.14750    0.95931    0.20288    1.000
    H60      H        0.18530    0.93200    0.19910    1.000
    C100     C        0.19500    0.12774    0.04533    1.000
    C101     C        0.10440    0.16928    0.11419    1.000
    C102     C        0.12880    0.08820    0.13259    1.000
    N43      N        0.87438    0.38697    0.12153    1.000
    N44      N        0.50269    0.20873    0.82922    1.000
    N45      N        0.56961    0.56346    0.75966    1.000
    N46      N        0.66070    0.34743    0.93948    1.000
    N47      N        0.59317    0.38776    0.84558    1.000
    N48      N        0.68359    0.43303    0.92111    1.000
    C103     C        0.83160    0.34637    0.10222    1.000
    H61      H        0.84170    0.31620    0.12640    1.000
    C104     C        0.77370    0.34653    0.04882    1.000
    H62      H        0.74450    0.31700    0.03650    1.000
    C105     C        0.75830    0.39040    0.01305    1.000
    C106     C        0.80280    0.43245    0.03264    1.000
    H63      H        0.79400    0.46310    0.00950    1.000
    C107     C        0.86010    0.42880    0.08639    1.000
    H64      H        0.89110    0.45760    0.09920    1.000
    C108     C        0.53280    0.21698    0.89285    1.000
    H65      H        0.53120    0.19070    0.92570    1.000
    C109     C        0.56620    0.26199    0.91324    1.000
    H66      H        0.58680    0.26640    0.95920    1.000
    C110     C        0.56950    0.30050    0.86587    1.000
    C111     C        0.53640    0.29260    0.79977    1.000
    H67      H        0.53570    0.31850    0.76640    1.000
    C112     C        0.50470    0.24644    0.78385    1.000
    H68      H        0.48310    0.24100    0.73840    1.000
    C113     C        0.54060    0.51960    0.73799    1.000
    H69      H        0.50500    0.51880    0.69820    1.000
    C114     C        0.55970    0.47527    0.77032    1.000
    H70      H        0.53790    0.44490    0.75280    1.000
    C115     C        0.61120    0.47568    0.82889    1.000
    C116     C        0.64250    0.52085    0.85102    1.000
    H71      H        0.67890    0.52260    0.89030    1.000
    C117     C        0.62050    0.56329    0.81580    1.000
    H72      H        0.64240    0.59400    0.83190    1.000
    C118     C        0.69780    0.39054    0.95456    1.000
    C119     C        0.60960    0.34811    0.88453    1.000
    C120     C        0.63090    0.42956    0.86686    1.000
    Fe7      Fe       0.04134    0.88200    0.28746    1.000
    Fe8      Fe       0.53448    0.63332    0.70634    1.000
    S13      S        0.31931    0.56226    0.55448    1.000
    S14      S        0.76484    0.72078    0.81668    1.000
    S15      S        0.28149    0.78398    0.21409    1.000
    S16      S        0.84529    0.93735    0.46182    1.000
    C121     C        0.20020    0.82030    0.22695    1.000
    C122     C        0.90250    0.92501    0.39327    1.000
    C123     C        0.39430    0.58330    0.60440    1.000
    C124     C        0.68170    0.69158    0.78870    1.000
    N49      N        0.14234    0.84573    0.23583    1.000
    N50      N        0.94374    0.91553    0.34533    1.000
    N51      N        0.44785    0.59817    0.64048    1.000
    N52      N        0.62288    0.67062    0.76850    1.000
    N53      N        0.62983    0.62819    0.62338    1.000
    N54      N        0.99923    0.80820    0.32342    1.000
    N55      N        0.92060    0.45460    0.25591    1.000
    N56      N        0.84398    0.67051    0.44041    1.000
    N57      N        0.81576    0.58551    0.41961    1.000
    N58      N        0.91259    0.62913    0.34771    1.000
    C125     C        0.67410    0.66887    0.60661    1.000
    H73      H        0.66600    0.69810    0.63330    1.000
    C126     C        0.73090    0.67003    0.55226    1.000
    H74      H        0.76070    0.69970    0.54160    1.000
    C127     C        0.74415    0.62758    0.51343    1.000
    C128     C        0.69870    0.58513    0.53105    1.000
    H75      H        0.70650    0.55530    0.50570    1.000
    C129     C        0.64240    0.58699    0.58569    1.000
    H76      H        0.61120    0.55800    0.59710    1.000
    C130     C        0.96830    0.80118    0.38739    1.000
    H77      H        0.96820    0.82850    0.41860    1.000
    C131     C        0.93660    0.75634    0.41063    1.000
    H78      H        0.91590    0.75290    0.45670    1.000
    C132     C        0.93583    0.71664    0.36507    1.000
    C133     C        0.96940    0.72305    0.29874    1.000
    H79      H        0.97110    0.69620    0.26690    1.000
    C134     C        0.00010    0.76908    0.28011    1.000
    H80      H        0.02280    0.77330    0.23480    1.000
    C135     C        0.97220    0.49375    0.25085    1.000
    H81      H        0.02100    0.49100    0.22220    1.000
    C136     C        0.95830    0.53810    0.28504    1.000
    H82      H        0.99600    0.56520    0.27920    1.000
    C137     C        0.88810    0.54204    0.32808    1.000
    C138     C        0.83450    0.50168    0.33429    1.000
    H83      H        0.78620    0.50320    0.36370    1.000
    C139     C        0.85250    0.45931    0.29712    1.000
    H84      H        0.81470    0.43200    0.30090    1.000
    C140     C        0.80500    0.62774    0.45467    1.000
    C141     C        0.89560    0.66928    0.38581    1.000
    C142     C        0.87120    0.58820    0.36741    1.000
    N59      N        0.12562    0.88697    0.37847    1.000
    N60      N        0.49731    0.70873    0.67078    1.000
    N61      N        0.43039    0.06346    0.74034    1.000
    N62      N        0.33930    0.84743    0.56052    1.000
    N63      N        0.40683    0.88776    0.65442    1.000
    N64      N        0.31641    0.93303    0.57889    1.000
    C143     C        0.16840    0.84637    0.39778    1.000
    H85      H        0.15830    0.81620    0.37360    1.000
    C144     C        0.22630    0.84653    0.45118    1.000
    H86      H        0.25550    0.81700    0.46350    1.000
    C145     C        0.24170    0.89040    0.48695    1.000
    C146     C        0.19720    0.93245    0.46736    1.000
    H87      H        0.20600    0.96310    0.49050    1.000
    C147     C        0.13990    0.92880    0.41361    1.000
    H88      H        0.10890    0.95760    0.40080    1.000
    C148     C        0.46720    0.71698    0.60715    1.000
    H89      H        0.46880    0.69070    0.57430    1.000
    C149     C        0.43380    0.76199    0.58676    1.000
    H90      H        0.41320    0.76640    0.54080    1.000
    C150     C        0.43050    0.80050    0.63413    1.000
    C151     C        0.46360    0.79260    0.70023    1.000
    H91      H        0.46430    0.81850    0.73360    1.000
    C152     C        0.49530    0.74644    0.71615    1.000
    H92      H        0.51690    0.74100    0.76160    1.000
    C153     C        0.45940    0.01960    0.76201    1.000
    H93      H        0.49500    0.01880    0.80180    1.000
    C154     C        0.44030    0.97527    0.72968    1.000
    H94      H        0.46210    0.94490    0.74720    1.000
    C155     C        0.38880    0.97568    0.67111    1.000
    C156     C        0.35750    0.02085    0.64898    1.000
    H95      H        0.32110    0.02260    0.60970    1.000
    C157     C        0.37950    0.06329    0.68420    1.000
    H96      H        0.35760    0.09400    0.66810    1.000
    C158     C        0.30220    0.89054    0.54544    1.000
    C159     C        0.39040    0.84811    0.61547    1.000
    C160     C        0.36910    0.92956    0.63314    1.000
