# CIF file generated by openbabel 3.1.0, see https://openbabel.org
data_I
_chemical_name_common 'image0'
_cell_length_a 36.768
_cell_length_b 21.228
_cell_length_c 19.238
_cell_angle_alpha 90
_cell_angle_beta 90
_cell_angle_gamma 90
_space_group_name_H-M_alt 'P 1'
_space_group_name_Hall 'P 1'
loop_
    _symmetry_equiv_pos_as_xyz
    x,y,z
loop_
    _atom_site_label
    _atom_site_type_symbol
    _atom_site_fract_x
    _atom_site_fract_y
    _atom_site_fract_z
    _atom_site_occupancy
    C1       C        0.97283    0.14770    0.33000    1.000
    C2       C        0.00176    0.18490    0.34870    1.000
    H1       H        0.99910    0.22850    0.34980    1.000
    C3       C        0.03490    0.15810    0.36570    1.000
    H2       H        0.05410    0.18380    0.37910    1.000
    C4       C        0.03966    0.09494    0.36310    1.000
    C5       C        0.01115    0.05750    0.34330    1.000
    H3       H        0.01430    0.01410    0.34040    1.000
    C6       C        0.97749    0.08390    0.32740    1.000
    H4       H        0.95810    0.05810    0.31510    1.000
    C7       C        0.07615    0.06444    0.37490    1.000
    C8       C        0.93820    0.18110    0.30900    1.000
    C9       C        0.13456    0.08122    0.43647    1.000
    C10      C        0.15635    0.13029    0.46105    1.000
    H5       H        0.14700    0.17090    0.46340    1.000
    C11      C        0.19158    0.11914    0.48183    1.000
    C12      C        0.20571    0.05839    0.47934    1.000
    H6       H        0.22940    0.05050    0.49390    1.000
    C13      C        0.18413    0.00976    0.45503    1.000
    C14      C        0.14860    0.02057    0.43289    1.000
    H7       H        0.13450    0.98760    0.41590    1.000
    C15      C        0.21466    0.17326    0.50710    1.000
    C16      C        0.19846    0.94362    0.45318    1.000
    C17      C        0.87404    0.17762    0.29300    1.000
    C18      C        0.84918    0.17841    0.34685    1.000
    H8       H        0.85430    0.15810    0.38850    1.000
    C19      C        0.81659    0.20984    0.33799    1.000
    C20      C        0.80936    0.24050    0.27565    1.000
    H9       H        0.78770    0.26260    0.27030    1.000
    C21      C        0.83369    0.23859    0.22226    1.000
    C22      C        0.86661    0.20720    0.23101    1.000
    H10      H        0.88350    0.20610    0.19510    1.000
    C23      C        0.82560    0.27150    0.15460    1.000
    C24      C        0.79057    0.21372    0.39700    1.000
    C25      C        0.46545    0.85240    0.72130    1.000
    C26      C        0.48261    0.79940    0.73580    1.000
    H11      H        0.47120    0.76120    0.72690    1.000
    C27      C        0.48204    0.90520    0.73630    1.000
    H12      H        0.47020    0.94330    0.72890    1.000
    C28      C        0.42739    0.84800    0.69150    1.000
    C29      C        0.37969    0.90765    0.63040    1.000
    C30      C        0.35896    0.85714    0.60830    1.000
    H13      H        0.36640    0.81620    0.61780    1.000
    C31      C        0.32686    0.86785    0.57192    1.000
    C32      C        0.31531    0.92829    0.55722    1.000
    H14      H        0.29390    0.93480    0.53260    1.000
    C33      C        0.33598    0.97940    0.57954    1.000
    C34      C        0.36811    0.96881    0.61670    1.000
    H15      H        0.38180    0.00280    0.63230    1.000
    C35      C        0.30490    0.81126    0.54944    1.000
    C36      C        0.32500    0.04575    0.56363    1.000
    N1       N        0.90822    0.14741    0.30486    1.000
    H16      H        0.90930    0.10520    0.30930    1.000
    N2       N        0.09845    0.09652    0.41728    1.000
    H17      H        0.08930    0.13200    0.43590    1.000
    N3       N        0.41341    0.90019    0.66550    1.000
    H18      H        0.42690    0.93530    0.67060    1.000
    O1       O        0.20185    0.22720    0.50300    1.000
    O2       O        0.24508    0.16067    0.53117    1.000
    O3       O        0.22876    0.93293    0.47955    1.000
    O4       O        0.17981    0.90077    0.42546    1.000
    O5       O        0.84890    0.27338    0.10844    1.000
    O6       O        0.79473    0.29573    0.14629    1.000
    O7       O        0.76283    0.24686    0.38653    1.000
    O8       O        0.79810    0.18412    0.45114    1.000
    O9       O        0.93914    0.23750    0.29670    1.000
    O10      O        0.08360    0.01519    0.34660    1.000
    O11      O        0.30060    0.05573    0.52049    1.000
    O12      O        0.34076    0.08984    0.59267    1.000
    O13      O        0.27927    0.82043    0.50788    1.000
    O14      O        0.31369    0.75900    0.57361    1.000
    O15      O        0.41175    0.79821    0.69250    1.000
    Tb1      Tb       0.22853    0.82431    0.43886    1.000
    Tb2      Tb       0.19320    0.32968    0.46965    1.000
    C37      C        0.47283    0.64770    0.33000    1.000
    C38      C        0.50176    0.68490    0.34870    1.000
    H19      H        0.49910    0.72850    0.34980    1.000
    C39      C        0.53490    0.65810    0.36570    1.000
    H20      H        0.55410    0.68380    0.37910    1.000
    C40      C        0.53966    0.59494    0.36310    1.000
    C41      C        0.51115    0.55750    0.34330    1.000
    H21      H        0.51430    0.51410    0.34040    1.000
    C42      C        0.47749    0.58390    0.32740    1.000
    H22      H        0.45810    0.55810    0.31510    1.000
    C43      C        0.57615    0.56444    0.37490    1.000
    C44      C        0.43820    0.68110    0.30900    1.000
    C45      C        0.63456    0.58122    0.43647    1.000
    C46      C        0.65635    0.63029    0.46105    1.000
    H23      H        0.64700    0.67090    0.46340    1.000
    C47      C        0.69158    0.61914    0.48183    1.000
    C48      C        0.70571    0.55839    0.47934    1.000
    H24      H        0.72940    0.55050    0.49390    1.000
    C49      C        0.68413    0.50976    0.45503    1.000
    C50      C        0.64860    0.52057    0.43289    1.000
    H25      H        0.63450    0.48760    0.41590    1.000
    C51      C        0.71466    0.67326    0.50710    1.000
    C52      C        0.69846    0.44362    0.45318    1.000
    C53      C        0.37404    0.67762    0.29300    1.000
    C54      C        0.34918    0.67841    0.34685    1.000
    H26      H        0.35430    0.65810    0.38850    1.000
    C55      C        0.31659    0.70984    0.33799    1.000
    C56      C        0.30936    0.74050    0.27565    1.000
    H27      H        0.28770    0.76260    0.27030    1.000
    C57      C        0.33369    0.73859    0.22226    1.000
    C58      C        0.36661    0.70720    0.23101    1.000
    H28      H        0.38350    0.70610    0.19510    1.000
    C59      C        0.32560    0.77150    0.15460    1.000
    C60      C        0.29057    0.71372    0.39700    1.000
    C61      C        0.96545    0.35240    0.72130    1.000
    C62      C        0.98261    0.29940    0.73580    1.000
    H29      H        0.97120    0.26120    0.72690    1.000
    C63      C        0.98204    0.40520    0.73630    1.000
    H30      H        0.97020    0.44330    0.72890    1.000
    C64      C        0.92739    0.34800    0.69150    1.000
    C65      C        0.87969    0.40765    0.63040    1.000
    C66      C        0.85896    0.35714    0.60830    1.000
    H31      H        0.86640    0.31620    0.61780    1.000
    C67      C        0.82686    0.36785    0.57192    1.000
    C68      C        0.81531    0.42829    0.55722    1.000
    H32      H        0.79390    0.43480    0.53260    1.000
    C69      C        0.83598    0.47940    0.57954    1.000
    C70      C        0.86811    0.46881    0.61670    1.000
    H33      H        0.88180    0.50280    0.63230    1.000
    C71      C        0.80490    0.31126    0.54944    1.000
    C72      C        0.82500    0.54575    0.56363    1.000
    N4       N        0.40822    0.64741    0.30486    1.000
    H34      H        0.40930    0.60520    0.30930    1.000
    N5       N        0.59845    0.59652    0.41728    1.000
    H35      H        0.58930    0.63200    0.43590    1.000
    N6       N        0.91341    0.40019    0.66550    1.000
    H36      H        0.92690    0.43530    0.67060    1.000
    O16      O        0.70185    0.72720    0.50300    1.000
    O17      O        0.74508    0.66067    0.53117    1.000
    O18      O        0.72876    0.43293    0.47955    1.000
    O19      O        0.67981    0.40077    0.42546    1.000
    O20      O        0.34890    0.77338    0.10844    1.000
    O21      O        0.29473    0.79573    0.14629    1.000
    O22      O        0.26283    0.74686    0.38653    1.000
    O23      O        0.29810    0.68412    0.45114    1.000
    O24      O        0.43914    0.73750    0.29670    1.000
    O25      O        0.58360    0.51519    0.34660    1.000
    O26      O        0.80060    0.55573    0.52049    1.000
    O27      O        0.84076    0.58984    0.59267    1.000
    O28      O        0.77927    0.32043    0.50788    1.000
    O29      O        0.81369    0.25900    0.57361    1.000
    O30      O        0.91175    0.29821    0.69250    1.000
    Tb3      Tb       0.72853    0.32431    0.43886    1.000
    Tb4      Tb       0.69320    0.82968    0.46965    1.000
    C73      C        0.02717    0.14770    0.17000    1.000
    C74      C        0.99824    0.18490    0.15130    1.000
    H37      H        0.00090    0.22850    0.15020    1.000
    C75      C        0.96510    0.15810    0.13430    1.000
    H38      H        0.94590    0.18380    0.12090    1.000
    C76      C        0.96034    0.09494    0.13690    1.000
    C77      C        0.98885    0.05750    0.15670    1.000
    H39      H        0.98570    0.01410    0.15960    1.000
    C78      C        0.02251    0.08390    0.17260    1.000
    H40      H        0.04190    0.05810    0.18490    1.000
    C79      C        0.92385    0.06444    0.12510    1.000
    C80      C        0.06180    0.18110    0.19100    1.000
    C81      C        0.86544    0.08122    0.06353    1.000
    C82      C        0.84365    0.13029    0.03895    1.000
    H41      H        0.85300    0.17090    0.03660    1.000
    C83      C        0.80842    0.11914    0.01817    1.000
    C84      C        0.79429    0.05839    0.02066    1.000
    H42      H        0.77060    0.05050    0.00610    1.000
    C85      C        0.81587    0.00976    0.04497    1.000
    C86      C        0.85140    0.02057    0.06711    1.000
    H43      H        0.86550    0.98760    0.08410    1.000
    C87      C        0.78534    0.17326    0.99290    1.000
    C88      C        0.80154    0.94362    0.04682    1.000
    C89      C        0.12596    0.17762    0.20700    1.000
    C90      C        0.15082    0.17841    0.15315    1.000
    H44      H        0.14570    0.15810    0.11150    1.000
    C91      C        0.18341    0.20984    0.16201    1.000
    C92      C        0.19064    0.24050    0.22435    1.000
    H45      H        0.21230    0.26260    0.22970    1.000
    C93      C        0.16631    0.23859    0.27774    1.000
    C94      C        0.13339    0.20720    0.26899    1.000
    H46      H        0.11650    0.20610    0.30490    1.000
    C95      C        0.17440    0.27150    0.34540    1.000
    C96      C        0.20943    0.21372    0.10300    1.000
    C97      C        0.53455    0.85240    0.77870    1.000
    C98      C        0.51739    0.79940    0.76420    1.000
    H47      H        0.52880    0.76120    0.77310    1.000
    C99      C        0.51796    0.90520    0.76370    1.000
    H48      H        0.52980    0.94330    0.77110    1.000
    C100     C        0.57261    0.84800    0.80850    1.000
    C101     C        0.62031    0.90765    0.86960    1.000
    C102     C        0.64104    0.85714    0.89170    1.000
    H49      H        0.63360    0.81620    0.88220    1.000
    C103     C        0.67314    0.86785    0.92808    1.000
    C104     C        0.68469    0.92829    0.94278    1.000
    H50      H        0.70610    0.93480    0.96740    1.000
    C105     C        0.66402    0.97940    0.92046    1.000
    C106     C        0.63189    0.96881    0.88330    1.000
    H51      H        0.61820    0.00280    0.86770    1.000
    C107     C        0.69510    0.81126    0.95056    1.000
    C108     C        0.67500    0.04575    0.93637    1.000
    N7       N        0.09178    0.14741    0.19514    1.000
    H52      H        0.09070    0.10520    0.19070    1.000
    N8       N        0.90155    0.09652    0.08272    1.000
    H53      H        0.91070    0.13200    0.06410    1.000
    N9       N        0.58659    0.90019    0.83450    1.000
    H54      H        0.57310    0.93530    0.82940    1.000
    O31      O        0.79815    0.22720    0.99700    1.000
    O32      O        0.75492    0.16067    0.96883    1.000
    O33      O        0.77124    0.93293    0.02045    1.000
    O34      O        0.82019    0.90077    0.07454    1.000
    O35      O        0.15110    0.27338    0.39156    1.000
    O36      O        0.20527    0.29573    0.35371    1.000
    O37      O        0.23717    0.24686    0.11347    1.000
    O38      O        0.20190    0.18412    0.04886    1.000
    O39      O        0.06086    0.23750    0.20330    1.000
    O40      O        0.91640    0.01519    0.15340    1.000
    O41      O        0.69940    0.05573    0.97951    1.000
    O42      O        0.65924    0.08984    0.90733    1.000
    O43      O        0.72073    0.82043    0.99212    1.000
    O44      O        0.68631    0.75900    0.92639    1.000
    O45      O        0.58825    0.79821    0.80750    1.000
    Tb5      Tb       0.77147    0.82431    0.06114    1.000
    Tb6      Tb       0.80680    0.32968    0.03035    1.000
    C109     C        0.52717    0.64770    0.17000    1.000
    C110     C        0.49824    0.68490    0.15130    1.000
    H55      H        0.50090    0.72850    0.15020    1.000
    C111     C        0.46510    0.65810    0.13430    1.000
    H56      H        0.44590    0.68380    0.12090    1.000
    C112     C        0.46034    0.59494    0.13690    1.000
    C113     C        0.48885    0.55750    0.15670    1.000
    H57      H        0.48570    0.51410    0.15960    1.000
    C114     C        0.52251    0.58390    0.17260    1.000
    H58      H        0.54190    0.55810    0.18490    1.000
    C115     C        0.42385    0.56444    0.12510    1.000
    C116     C        0.56180    0.68110    0.19100    1.000
    C117     C        0.36544    0.58122    0.06353    1.000
    C118     C        0.34365    0.63029    0.03895    1.000
    H59      H        0.35300    0.67090    0.03660    1.000
    C119     C        0.30842    0.61914    0.01817    1.000
    C120     C        0.29429    0.55839    0.02066    1.000
    H60      H        0.27060    0.55050    0.00610    1.000
    C121     C        0.31587    0.50976    0.04497    1.000
    C122     C        0.35140    0.52057    0.06711    1.000
    H61      H        0.36550    0.48760    0.08410    1.000
    C123     C        0.28534    0.67326    0.99290    1.000
    C124     C        0.30154    0.44362    0.04682    1.000
    C125     C        0.62596    0.67762    0.20700    1.000
    C126     C        0.65082    0.67841    0.15315    1.000
    H62      H        0.64570    0.65810    0.11150    1.000
    C127     C        0.68341    0.70984    0.16201    1.000
    C128     C        0.69064    0.74050    0.22435    1.000
    H63      H        0.71230    0.76260    0.22970    1.000
    C129     C        0.66631    0.73859    0.27774    1.000
    C130     C        0.63339    0.70720    0.26899    1.000
    H64      H        0.61650    0.70610    0.30490    1.000
    C131     C        0.67440    0.77150    0.34540    1.000
    C132     C        0.70943    0.71372    0.10300    1.000
    C133     C        0.03455    0.35240    0.77870    1.000
    C134     C        0.01739    0.29940    0.76420    1.000
    H65      H        0.02880    0.26120    0.77310    1.000
    C135     C        0.01796    0.40520    0.76370    1.000
    H66      H        0.02980    0.44330    0.77110    1.000
    C136     C        0.07261    0.34800    0.80850    1.000
    C137     C        0.12031    0.40765    0.86960    1.000
    C138     C        0.14104    0.35714    0.89170    1.000
    H67      H        0.13360    0.31620    0.88220    1.000
    C139     C        0.17314    0.36785    0.92808    1.000
    C140     C        0.18469    0.42829    0.94278    1.000
    H68      H        0.20610    0.43480    0.96740    1.000
    C141     C        0.16402    0.47940    0.92046    1.000
    C142     C        0.13189    0.46881    0.88330    1.000
    H69      H        0.11820    0.50280    0.86770    1.000
    C143     C        0.19510    0.31126    0.95056    1.000
    C144     C        0.17500    0.54575    0.93637    1.000
    N10      N        0.59178    0.64741    0.19514    1.000
    H70      H        0.59070    0.60520    0.19070    1.000
    N11      N        0.40155    0.59652    0.08272    1.000
    H71      H        0.41070    0.63200    0.06410    1.000
    N12      N        0.08659    0.40019    0.83450    1.000
    H72      H        0.07310    0.43530    0.82940    1.000
    O46      O        0.29815    0.72720    0.99700    1.000
    O47      O        0.25492    0.66067    0.96883    1.000
    O48      O        0.27124    0.43293    0.02045    1.000
    O49      O        0.32019    0.40077    0.07454    1.000
    O50      O        0.65110    0.77338    0.39156    1.000
    O51      O        0.70527    0.79573    0.35371    1.000
    O52      O        0.73717    0.74686    0.11347    1.000
    O53      O        0.70190    0.68412    0.04886    1.000
    O54      O        0.56086    0.73750    0.20330    1.000
    O55      O        0.41640    0.51519    0.15340    1.000
    O56      O        0.19940    0.55573    0.97951    1.000
    O57      O        0.15924    0.58984    0.90733    1.000
    O58      O        0.22073    0.32043    0.99212    1.000
    O59      O        0.18631    0.25900    0.92639    1.000
    O60      O        0.08825    0.29821    0.80750    1.000
    Tb7      Tb       0.27147    0.32431    0.06114    1.000
    Tb8      Tb       0.30680    0.82968    0.03035    1.000
    C145     C        0.02717    0.85230    0.67000    1.000
    C146     C        0.99824    0.81510    0.65130    1.000
    H73      H        0.00090    0.77150    0.65020    1.000
    C147     C        0.96510    0.84190    0.63430    1.000
    H74      H        0.94590    0.81620    0.62090    1.000
    C148     C        0.96034    0.90506    0.63690    1.000
    C149     C        0.98885    0.94250    0.65670    1.000
    H75      H        0.98570    0.98590    0.65960    1.000
    C150     C        0.02251    0.91610    0.67260    1.000
    H76      H        0.04190    0.94190    0.68490    1.000
    C151     C        0.92385    0.93556    0.62510    1.000
    C152     C        0.06180    0.81890    0.69100    1.000
    C153     C        0.86544    0.91878    0.56353    1.000
    C154     C        0.84365    0.86971    0.53895    1.000
    H77      H        0.85300    0.82910    0.53660    1.000
    C155     C        0.80842    0.88086    0.51817    1.000
    C156     C        0.79429    0.94161    0.52066    1.000
    H78      H        0.77060    0.94950    0.50610    1.000
    C157     C        0.81587    0.99024    0.54497    1.000
    C158     C        0.85140    0.97943    0.56711    1.000
    H79      H        0.86550    0.01240    0.58410    1.000
    C159     C        0.78534    0.82674    0.49290    1.000
    C160     C        0.80154    0.05638    0.54682    1.000
    C161     C        0.12596    0.82238    0.70700    1.000
    C162     C        0.15082    0.82159    0.65315    1.000
    H80      H        0.14570    0.84190    0.61150    1.000
    C163     C        0.18341    0.79016    0.66201    1.000
    C164     C        0.19064    0.75950    0.72435    1.000
    H81      H        0.21230    0.73740    0.72970    1.000
    C165     C        0.16631    0.76141    0.77774    1.000
    C166     C        0.13339    0.79280    0.76899    1.000
    H82      H        0.11650    0.79390    0.80490    1.000
    C167     C        0.17440    0.72850    0.84540    1.000
    C168     C        0.20943    0.78628    0.60300    1.000
    C169     C        0.53455    0.14760    0.27870    1.000
    C170     C        0.51739    0.20060    0.26420    1.000
    H83      H        0.52880    0.23880    0.27310    1.000
    C171     C        0.51796    0.09480    0.26370    1.000
    H84      H        0.52980    0.05670    0.27110    1.000
    C172     C        0.57261    0.15200    0.30850    1.000
    C173     C        0.62031    0.09235    0.36960    1.000
    C174     C        0.64104    0.14286    0.39170    1.000
    H85      H        0.63360    0.18380    0.38220    1.000
    C175     C        0.67314    0.13215    0.42808    1.000
    C176     C        0.68469    0.07171    0.44278    1.000
    H86      H        0.70610    0.06520    0.46740    1.000
    C177     C        0.66402    0.02060    0.42046    1.000
    C178     C        0.63189    0.03119    0.38330    1.000
    H87      H        0.61820    0.99720    0.36770    1.000
    C179     C        0.69510    0.18874    0.45056    1.000
    C180     C        0.67500    0.95425    0.43637    1.000
    N13      N        0.09178    0.85259    0.69514    1.000
    H88      H        0.09070    0.89480    0.69070    1.000
    N14      N        0.90155    0.90348    0.58272    1.000
    H89      H        0.91070    0.86800    0.56410    1.000
    N15      N        0.58659    0.09981    0.33450    1.000
    H90      H        0.57310    0.06470    0.32940    1.000
    O61      O        0.79815    0.77280    0.49700    1.000
    O62      O        0.75492    0.83933    0.46883    1.000
    O63      O        0.77124    0.06707    0.52045    1.000
    O64      O        0.82019    0.09923    0.57454    1.000
    O65      O        0.15110    0.72662    0.89156    1.000
    O66      O        0.20527    0.70427    0.85371    1.000
    O67      O        0.23717    0.75314    0.61347    1.000
    O68      O        0.20190    0.81588    0.54886    1.000
    O69      O        0.06086    0.76250    0.70330    1.000
    O70      O        0.91640    0.98481    0.65340    1.000
    O71      O        0.69940    0.94427    0.47951    1.000
    O72      O        0.65924    0.91016    0.40733    1.000
    O73      O        0.72073    0.17957    0.49212    1.000
    O74      O        0.68631    0.24100    0.42639    1.000
    O75      O        0.58825    0.20179    0.30750    1.000
    Tb9      Tb       0.77147    0.17569    0.56114    1.000
    Tb10     Tb       0.80680    0.67032    0.53035    1.000
    C181     C        0.52717    0.35230    0.67000    1.000
    C182     C        0.49824    0.31510    0.65130    1.000
    H91      H        0.50090    0.27150    0.65020    1.000
    C183     C        0.46510    0.34190    0.63430    1.000
    H92      H        0.44590    0.31620    0.62090    1.000
    C184     C        0.46034    0.40506    0.63690    1.000
    C185     C        0.48885    0.44250    0.65670    1.000
    H93      H        0.48570    0.48590    0.65960    1.000
    C186     C        0.52251    0.41610    0.67260    1.000
    H94      H        0.54190    0.44190    0.68490    1.000
    C187     C        0.42385    0.43556    0.62510    1.000
    C188     C        0.56180    0.31890    0.69100    1.000
    C189     C        0.36544    0.41878    0.56353    1.000
    C190     C        0.34365    0.36971    0.53895    1.000
    H95      H        0.35300    0.32910    0.53660    1.000
    C191     C        0.30842    0.38086    0.51817    1.000
    C192     C        0.29429    0.44161    0.52066    1.000
    H96      H        0.27060    0.44950    0.50610    1.000
    C193     C        0.31587    0.49024    0.54497    1.000
    C194     C        0.35140    0.47943    0.56711    1.000
    H97      H        0.36550    0.51240    0.58410    1.000
    C195     C        0.28534    0.32674    0.49290    1.000
    C196     C        0.30154    0.55638    0.54682    1.000
    C197     C        0.62596    0.32238    0.70700    1.000
    C198     C        0.65082    0.32159    0.65315    1.000
    H98      H        0.64570    0.34190    0.61150    1.000
    C199     C        0.68341    0.29016    0.66201    1.000
    C200     C        0.69064    0.25950    0.72435    1.000
    H99      H        0.71230    0.23740    0.72970    1.000
    C201     C        0.66631    0.26141    0.77774    1.000
    C202     C        0.63339    0.29280    0.76899    1.000
    H100     H        0.61650    0.29390    0.80490    1.000
    C203     C        0.67440    0.22850    0.84540    1.000
    C204     C        0.70943    0.28628    0.60300    1.000
    C205     C        0.03455    0.64760    0.27870    1.000
    C206     C        0.01739    0.70060    0.26420    1.000
    H101     H        0.02880    0.73880    0.27310    1.000
    C207     C        0.01796    0.59480    0.26370    1.000
    H102     H        0.02980    0.55670    0.27110    1.000
    C208     C        0.07261    0.65200    0.30850    1.000
    C209     C        0.12031    0.59235    0.36960    1.000
    C210     C        0.14104    0.64286    0.39170    1.000
    H103     H        0.13360    0.68380    0.38220    1.000
    C211     C        0.17314    0.63215    0.42808    1.000
    C212     C        0.18469    0.57171    0.44278    1.000
    H104     H        0.20610    0.56520    0.46740    1.000
    C213     C        0.16402    0.52060    0.42046    1.000
    C214     C        0.13189    0.53119    0.38330    1.000
    H105     H        0.11820    0.49720    0.36770    1.000
    C215     C        0.19510    0.68874    0.45056    1.000
    C216     C        0.17500    0.45425    0.43637    1.000
    N16      N        0.59178    0.35259    0.69514    1.000
    H106     H        0.59070    0.39480    0.69070    1.000
    N17      N        0.40155    0.40348    0.58272    1.000
    H107     H        0.41070    0.36800    0.56410    1.000
    N18      N        0.08659    0.59981    0.33450    1.000
    H108     H        0.07310    0.56470    0.32940    1.000
    O76      O        0.29815    0.27280    0.49700    1.000
    O77      O        0.25492    0.33933    0.46883    1.000
    O78      O        0.27124    0.56707    0.52045    1.000
    O79      O        0.32019    0.59923    0.57454    1.000
    O80      O        0.65110    0.22662    0.89156    1.000
    O81      O        0.70527    0.20427    0.85371    1.000
    O82      O        0.73717    0.25314    0.61347    1.000
    O83      O        0.70190    0.31588    0.54886    1.000
    O84      O        0.56086    0.26250    0.70330    1.000
    O85      O        0.41640    0.48481    0.65340    1.000
    O86      O        0.19940    0.44427    0.47951    1.000
    O87      O        0.15924    0.41016    0.40733    1.000
    O88      O        0.22073    0.67957    0.49212    1.000
    O89      O        0.18631    0.74100    0.42639    1.000
    O90      O        0.08825    0.70179    0.30750    1.000
    Tb11     Tb       0.27147    0.67569    0.56114    1.000
    Tb12     Tb       0.30680    0.17032    0.53035    1.000
    C217     C        0.97283    0.85230    0.83000    1.000
    C218     C        0.00176    0.81510    0.84870    1.000
    H109     H        0.99910    0.77150    0.84980    1.000
    C219     C        0.03490    0.84190    0.86570    1.000
    H110     H        0.05410    0.81620    0.87910    1.000
    C220     C        0.03966    0.90506    0.86310    1.000
    C221     C        0.01115    0.94250    0.84330    1.000
    H111     H        0.01430    0.98590    0.84040    1.000
    C222     C        0.97749    0.91610    0.82740    1.000
    H112     H        0.95810    0.94190    0.81510    1.000
    C223     C        0.07615    0.93556    0.87490    1.000
    C224     C        0.93820    0.81890    0.80900    1.000
    C225     C        0.13456    0.91878    0.93647    1.000
    C226     C        0.15635    0.86971    0.96105    1.000
    H113     H        0.14700    0.82910    0.96340    1.000
    C227     C        0.19158    0.88086    0.98183    1.000
    C228     C        0.20571    0.94161    0.97934    1.000
    H114     H        0.22940    0.94950    0.99390    1.000
    C229     C        0.18413    0.99024    0.95503    1.000
    C230     C        0.14860    0.97943    0.93289    1.000
    H115     H        0.13450    0.01240    0.91590    1.000
    C231     C        0.21466    0.82674    0.00710    1.000
    C232     C        0.19846    0.05638    0.95318    1.000
    C233     C        0.87404    0.82238    0.79300    1.000
    C234     C        0.84918    0.82159    0.84685    1.000
    H116     H        0.85430    0.84190    0.88850    1.000
    C235     C        0.81659    0.79016    0.83799    1.000
    C236     C        0.80936    0.75950    0.77565    1.000
    H117     H        0.78770    0.73740    0.77030    1.000
    C237     C        0.83369    0.76141    0.72226    1.000
    C238     C        0.86661    0.79280    0.73101    1.000
    H118     H        0.88350    0.79390    0.69510    1.000
    C239     C        0.82560    0.72850    0.65460    1.000
    C240     C        0.79057    0.78628    0.89700    1.000
    C241     C        0.46545    0.14760    0.22130    1.000
    C242     C        0.48261    0.20060    0.23580    1.000
    H119     H        0.47120    0.23880    0.22690    1.000
    C243     C        0.48204    0.09480    0.23630    1.000
    H120     H        0.47020    0.05670    0.22890    1.000
    C244     C        0.42739    0.15200    0.19150    1.000
    C245     C        0.37969    0.09235    0.13040    1.000
    C246     C        0.35896    0.14286    0.10830    1.000
    H121     H        0.36640    0.18380    0.11780    1.000
    C247     C        0.32686    0.13215    0.07192    1.000
    C248     C        0.31531    0.07171    0.05722    1.000
    H122     H        0.29390    0.06520    0.03260    1.000
    C249     C        0.33598    0.02060    0.07954    1.000
    C250     C        0.36811    0.03119    0.11670    1.000
    H123     H        0.38180    0.99720    0.13230    1.000
    C251     C        0.30490    0.18874    0.04944    1.000
    C252     C        0.32500    0.95425    0.06363    1.000
    N19      N        0.90822    0.85259    0.80486    1.000
    H124     H        0.90930    0.89480    0.80930    1.000
    N20      N        0.09845    0.90348    0.91728    1.000
    H125     H        0.08930    0.86800    0.93590    1.000
    N21      N        0.41341    0.09981    0.16550    1.000
    H126     H        0.42690    0.06470    0.17060    1.000
    O91      O        0.20185    0.77280    0.00300    1.000
    O92      O        0.24508    0.83933    0.03117    1.000
    O93      O        0.22876    0.06707    0.97955    1.000
    O94      O        0.17981    0.09923    0.92546    1.000
    O95      O        0.84890    0.72662    0.60844    1.000
    O96      O        0.79473    0.70427    0.64629    1.000
    O97      O        0.76283    0.75314    0.88653    1.000
    O98      O        0.79810    0.81588    0.95114    1.000
    O99      O        0.93914    0.76250    0.79670    1.000
    O100     O        0.08360    0.98481    0.84660    1.000
    O101     O        0.30060    0.94427    0.02049    1.000
    O102     O        0.34076    0.91016    0.09267    1.000
    O103     O        0.27927    0.17957    0.00788    1.000
    O104     O        0.31369    0.24100    0.07361    1.000
    O105     O        0.41175    0.20179    0.19250    1.000
    Tb13     Tb       0.22853    0.17569    0.93886    1.000
    Tb14     Tb       0.19320    0.67032    0.96965    1.000
    C253     C        0.47283    0.35230    0.83000    1.000
    C254     C        0.50176    0.31510    0.84870    1.000
    H127     H        0.49910    0.27150    0.84980    1.000
    C255     C        0.53490    0.34190    0.86570    1.000
    H128     H        0.55410    0.31620    0.87910    1.000
    C256     C        0.53966    0.40506    0.86310    1.000
    C257     C        0.51115    0.44250    0.84330    1.000
    H129     H        0.51430    0.48590    0.84040    1.000
    C258     C        0.47749    0.41610    0.82740    1.000
    H130     H        0.45810    0.44190    0.81510    1.000
    C259     C        0.57615    0.43556    0.87490    1.000
    C260     C        0.43820    0.31890    0.80900    1.000
    C261     C        0.63456    0.41878    0.93647    1.000
    C262     C        0.65635    0.36971    0.96105    1.000
    H131     H        0.64700    0.32910    0.96340    1.000
    C263     C        0.69158    0.38086    0.98183    1.000
    C264     C        0.70571    0.44161    0.97934    1.000
    H132     H        0.72940    0.44950    0.99390    1.000
    C265     C        0.68413    0.49024    0.95503    1.000
    C266     C        0.64860    0.47943    0.93289    1.000
    H133     H        0.63450    0.51240    0.91590    1.000
    C267     C        0.71466    0.32674    0.00710    1.000
    C268     C        0.69846    0.55638    0.95318    1.000
    C269     C        0.37404    0.32238    0.79300    1.000
    C270     C        0.34918    0.32159    0.84685    1.000
    H134     H        0.35430    0.34190    0.88850    1.000
    C271     C        0.31659    0.29016    0.83799    1.000
    C272     C        0.30936    0.25950    0.77565    1.000
    H135     H        0.28770    0.23740    0.77030    1.000
    C273     C        0.33369    0.26141    0.72226    1.000
    C274     C        0.36661    0.29280    0.73101    1.000
    H136     H        0.38350    0.29390    0.69510    1.000
    C275     C        0.32560    0.22850    0.65460    1.000
    C276     C        0.29057    0.28628    0.89700    1.000
    C277     C        0.96545    0.64760    0.22130    1.000
    C278     C        0.98261    0.70060    0.23580    1.000
    H137     H        0.97120    0.73880    0.22690    1.000
    C279     C        0.98204    0.59480    0.23630    1.000
    H138     H        0.97020    0.55670    0.22890    1.000
    C280     C        0.92739    0.65200    0.19150    1.000
    C281     C        0.87969    0.59235    0.13040    1.000
    C282     C        0.85896    0.64286    0.10830    1.000
    H139     H        0.86640    0.68380    0.11780    1.000
    C283     C        0.82686    0.63215    0.07192    1.000
    C284     C        0.81531    0.57171    0.05722    1.000
    H140     H        0.79390    0.56520    0.03260    1.000
    C285     C        0.83598    0.52060    0.07954    1.000
    C286     C        0.86811    0.53119    0.11670    1.000
    H141     H        0.88180    0.49720    0.13230    1.000
    C287     C        0.80490    0.68874    0.04944    1.000
    C288     C        0.82500    0.45425    0.06363    1.000
    N22      N        0.40822    0.35259    0.80486    1.000
    H142     H        0.40930    0.39480    0.80930    1.000
    N23      N        0.59845    0.40348    0.91728    1.000
    H143     H        0.58930    0.36800    0.93590    1.000
    N24      N        0.91341    0.59981    0.16550    1.000
    H144     H        0.92690    0.56470    0.17060    1.000
    O106     O        0.70185    0.27280    0.00300    1.000
    O107     O        0.74508    0.33933    0.03117    1.000
    O108     O        0.72876    0.56707    0.97955    1.000
    O109     O        0.67981    0.59923    0.92546    1.000
    O110     O        0.34890    0.22662    0.60844    1.000
    O111     O        0.29473    0.20427    0.64629    1.000
    O112     O        0.26283    0.25314    0.88653    1.000
    O113     O        0.29810    0.31588    0.95114    1.000
    O114     O        0.43914    0.26250    0.79670    1.000
    O115     O        0.58360    0.48481    0.84660    1.000
    O116     O        0.80060    0.44427    0.02049    1.000
    O117     O        0.84076    0.41016    0.09267    1.000
    O118     O        0.77927    0.67957    0.00788    1.000
    O119     O        0.81369    0.74100    0.07361    1.000
    O120     O        0.91175    0.70179    0.19250    1.000
    Tb15     Tb       0.72853    0.67569    0.93886    1.000
    Tb16     Tb       0.69320    0.17032    0.96965    1.000
