# CIF file generated by openbabel 3.1.0, see https://openbabel.org
data_I
_chemical_name_common 'image0'
_cell_length_a 28.4095
_cell_length_b 28.0922
_cell_length_c 9.4743
_cell_angle_alpha 90
_cell_angle_beta 90
_cell_angle_gamma 90
_space_group_name_H-M_alt 'P 1'
_space_group_name_Hall 'P 1'
loop_
    _symmetry_equiv_pos_as_xyz
    x,y,z
loop_
    _atom_site_label
    _atom_site_type_symbol
    _atom_site_fract_x
    _atom_site_fract_y
    _atom_site_fract_z
    _atom_site_occupancy
    Zn1      Zn       0.13155    0.51118    0.90457    1.000
    N1       N        0.36746    0.33949    0.40060    1.000
    N2       N        0.38898    0.07802    0.64250    1.000
    N3       N        0.51327    0.42657    0.09270    1.000
    N4       N        0.57508    0.47100    0.05500    1.000
    N5       N        0.39479    0.15532    0.62130    1.000
    C1       C        0.40195    0.36160    0.31890    1.000
    C2       C        0.37168    0.11606    0.57890    1.000
    H1       H        0.34710    0.11570    0.51420    1.000
    N6       N        0.20972    0.44356    0.59250    1.000
    C3       C        0.41765    0.27943    0.50780    1.000
    H2       H        0.44280    0.30060    0.50430    1.000
    C4       C        0.24995    0.41678    0.54280    1.000
    C5       C        0.37435    0.29312    0.45690    1.000
    C6       C        0.38690    0.20302    0.57030    1.000
    C7       C        0.42852    0.14129    0.71620    1.000
    H3       H        0.45000    0.16070    0.76250    1.000
    C8       C        0.47408    0.40528    0.16590    1.000
    N7       N        0.16226    0.48294    0.73320    1.000
    C9       C        0.43125    0.33521    0.23240    1.000
    H4       H        0.42650    0.30260    0.22430    1.000
    C10      C        0.46731    0.35647    0.15790    1.000
    H5       H        0.48710    0.33800    0.10220    1.000
    C11      C        0.32710    0.36600    0.44800    1.000
    C12      C        0.27618    0.39116    0.63700    1.000
    H6       H        0.26780    0.39050    0.73190    1.000
    C13      C        0.34371    0.21609    0.52170    1.000
    H7       H        0.31850    0.19510    0.52720    1.000
    C14      C        0.42428    0.23421    0.56450    1.000
    H8       H        0.45370    0.22510    0.59820    1.000
    C15      C        0.54068    0.46076    0.14250    1.000
    H9       H        0.53610    0.47570    0.22890    1.000
    C16      C        0.40877    0.41097    0.32440    1.000
    H10      H        0.38900    0.42960    0.37990    1.000
    C17      C        0.33766    0.26112    0.46400    1.000
    H11      H        0.30830    0.26990    0.42950    1.000
    C18      C        0.44456    0.43232    0.24800    1.000
    H12      H        0.44860    0.46510    0.25230    1.000
    C19      C        0.42422    0.09329    0.72910    1.000
    H13      H        0.44240    0.07400    0.78750    1.000
    C20      C        0.31546    0.36601    0.59010    1.000
    H14      H        0.33390    0.34920    0.65420    1.000
    C21      C        0.20179    0.45928    0.72440    1.000
    H15      H        0.22190    0.45400    0.80020    1.000
    C22      C        0.56813    0.44260    0.93980    1.000
    H16      H        0.58650    0.44230    0.85860    1.000
    C23      C        0.26041    0.41570    0.40240    1.000
    H17      H        0.24180    0.43260    0.33880    1.000
    C24      C        0.52986    0.41470    0.96400    1.000
    H18      H        0.51750    0.39190    0.90340    1.000
    C25      C        0.29810    0.39010    0.35450    1.000
    H19      H        0.30440    0.38880    0.25820    1.000
    C26      C        0.14370    0.48280    0.60620    1.000
    H20      H        0.11530    0.49720    0.58260    1.000
    C27      C        0.17240    0.45800    0.51120    1.000
    H21      H        0.16740    0.45250    0.41550    1.000
    Zn2      Zn       0.36845    0.01118    0.59543    1.000
    N8       N        0.13254    0.83949    0.09940    1.000
    N9       N        0.11102    0.57802    0.85750    1.000
    N10      N        0.98673    0.92657    0.40730    1.000
    N11      N        0.92492    0.97100    0.44500    1.000
    N12      N        0.10521    0.65532    0.87870    1.000
    C28      C        0.09805    0.86160    0.18110    1.000
    C29      C        0.12832    0.61606    0.92110    1.000
    H22      H        0.15290    0.61570    0.98580    1.000
    N13      N        0.29028    0.94356    0.90750    1.000
    C30      C        0.08235    0.77943    0.99220    1.000
    H23      H        0.05720    0.80060    0.99570    1.000
    C31      C        0.25005    0.91678    0.95720    1.000
    C32      C        0.12565    0.79312    0.04310    1.000
    C33      C        0.11310    0.70302    0.92970    1.000
    C34      C        0.07148    0.64129    0.78380    1.000
    H24      H        0.05000    0.66070    0.73750    1.000
    C35      C        0.02592    0.90528    0.33410    1.000
    N14      N        0.33774    0.98294    0.76680    1.000
    C36      C        0.06875    0.83521    0.26760    1.000
    H25      H        0.07350    0.80260    0.27570    1.000
    C37      C        0.03269    0.85647    0.34210    1.000
    H26      H        0.01290    0.83800    0.39780    1.000
    C38      C        0.17290    0.86600    0.05200    1.000
    C39      C        0.22382    0.89116    0.86300    1.000
    H27      H        0.23220    0.89050    0.76810    1.000
    C40      C        0.15629    0.71609    0.97830    1.000
    H28      H        0.18150    0.69510    0.97280    1.000
    C41      C        0.07572    0.73421    0.93550    1.000
    H29      H        0.04630    0.72510    0.90180    1.000
    C42      C        0.95932    0.96076    0.35750    1.000
    H30      H        0.96390    0.97570    0.27110    1.000
    C43      C        0.09123    0.91097    0.17560    1.000
    H31      H        0.11100    0.92960    0.12010    1.000
    C44      C        0.16234    0.76112    0.03600    1.000
    H32      H        0.19170    0.76990    0.07050    1.000
    C45      C        0.05544    0.93232    0.25200    1.000
    H33      H        0.05140    0.96510    0.24770    1.000
    C46      C        0.07578    0.59329    0.77090    1.000
    H34      H        0.05760    0.57400    0.71250    1.000
    C47      C        0.18454    0.86601    0.90990    1.000
    H35      H        0.16610    0.84920    0.84580    1.000
    C48      C        0.29821    0.95928    0.77560    1.000
    H36      H        0.27810    0.95400    0.69980    1.000
    C49      C        0.93187    0.94260    0.56020    1.000
    H37      H        0.91350    0.94230    0.64140    1.000
    C50      C        0.23959    0.91570    0.09760    1.000
    H38      H        0.25820    0.93260    0.16120    1.000
    C51      C        0.97014    0.91470    0.53600    1.000
    H39      H        0.98250    0.89190    0.59660    1.000
    C52      C        0.20190    0.89010    0.14550    1.000
    H40      H        0.19560    0.88880    0.24180    1.000
    C53      C        0.35630    0.98280    0.89380    1.000
    H41      H        0.38470    0.99720    0.91740    1.000
    C54      C        0.32760    0.95800    0.98880    1.000
    H42      H        0.33260    0.95250    0.08450    1.000
    Zn3      Zn       0.63155    0.51118    0.09543    1.000
    N15      N        0.86746    0.33949    0.59940    1.000
    N16      N        0.88898    0.07802    0.35750    1.000
    N17      N        0.01327    0.42657    0.90730    1.000
    N18      N        0.07508    0.47100    0.94500    1.000
    N19      N        0.89479    0.15532    0.37870    1.000
    C55      C        0.90195    0.36160    0.68110    1.000
    C56      C        0.87168    0.11606    0.42110    1.000
    H43      H        0.84710    0.11570    0.48580    1.000
    N20      N        0.70972    0.44356    0.40750    1.000
    C57      C        0.91765    0.27943    0.49220    1.000
    H44      H        0.94280    0.30060    0.49570    1.000
    C58      C        0.74995    0.41678    0.45720    1.000
    C59      C        0.87435    0.29312    0.54310    1.000
    C60      C        0.88690    0.20302    0.42970    1.000
    C61      C        0.92852    0.14129    0.28380    1.000
    H45      H        0.95000    0.16070    0.23750    1.000
    C62      C        0.97408    0.40528    0.83410    1.000
    N21      N        0.66226    0.48294    0.26680    1.000
    C63      C        0.93125    0.33521    0.76760    1.000
    H46      H        0.92650    0.30260    0.77570    1.000
    C64      C        0.96731    0.35647    0.84210    1.000
    H47      H        0.98710    0.33800    0.89780    1.000
    C65      C        0.82710    0.36600    0.55200    1.000
    C66      C        0.77618    0.39116    0.36300    1.000
    H48      H        0.76780    0.39050    0.26810    1.000
    C67      C        0.84371    0.21609    0.47830    1.000
    H49      H        0.81850    0.19510    0.47280    1.000
    C68      C        0.92428    0.23421    0.43550    1.000
    H50      H        0.95370    0.22510    0.40180    1.000
    C69      C        0.04068    0.46076    0.85750    1.000
    H51      H        0.03610    0.47570    0.77110    1.000
    C70      C        0.90877    0.41097    0.67560    1.000
    H52      H        0.88900    0.42960    0.62010    1.000
    C71      C        0.83766    0.26112    0.53600    1.000
    H53      H        0.80830    0.26990    0.57050    1.000
    C72      C        0.94456    0.43232    0.75200    1.000
    H54      H        0.94860    0.46510    0.74770    1.000
    C73      C        0.92422    0.09329    0.27090    1.000
    H55      H        0.94240    0.07400    0.21250    1.000
    C74      C        0.81546    0.36601    0.40990    1.000
    H56      H        0.83390    0.34920    0.34580    1.000
    C75      C        0.70179    0.45928    0.27560    1.000
    H57      H        0.72190    0.45400    0.19980    1.000
    C76      C        0.06813    0.44260    0.06020    1.000
    H58      H        0.08650    0.44230    0.14140    1.000
    C77      C        0.76041    0.41570    0.59760    1.000
    H59      H        0.74180    0.43260    0.66120    1.000
    C78      C        0.02986    0.41470    0.03600    1.000
    H60      H        0.01750    0.39190    0.09660    1.000
    C79      C        0.79810    0.39010    0.64550    1.000
    H61      H        0.80440    0.38880    0.74180    1.000
    C80      C        0.64370    0.48280    0.39380    1.000
    H62      H        0.61530    0.49720    0.41740    1.000
    C81      C        0.67240    0.45800    0.48880    1.000
    H63      H        0.66740    0.45250    0.58450    1.000
    Zn4      Zn       0.86845    0.01118    0.40457    1.000
    N22      N        0.63254    0.83949    0.90060    1.000
    N23      N        0.61102    0.57802    0.14250    1.000
    N24      N        0.48673    0.92657    0.59270    1.000
    N25      N        0.42492    0.97100    0.55500    1.000
    N26      N        0.60521    0.65532    0.12130    1.000
    C82      C        0.59805    0.86160    0.81890    1.000
    C83      C        0.62832    0.61606    0.07890    1.000
    H64      H        0.65290    0.61570    0.01420    1.000
    N27      N        0.79028    0.94356    0.09250    1.000
    C84      C        0.58235    0.77943    0.00780    1.000
    H65      H        0.55720    0.80060    0.00430    1.000
    C85      C        0.75005    0.91678    0.04280    1.000
    C86      C        0.62565    0.79312    0.95690    1.000
    C87      C        0.61310    0.70302    0.07030    1.000
    C88      C        0.57148    0.64129    0.21620    1.000
    H66      H        0.55000    0.66070    0.26250    1.000
    C89      C        0.52592    0.90528    0.66590    1.000
    N28      N        0.83774    0.98294    0.23320    1.000
    C90      C        0.56875    0.83521    0.73240    1.000
    H67      H        0.57350    0.80260    0.72430    1.000
    C91      C        0.53269    0.85647    0.65790    1.000
    H68      H        0.51290    0.83800    0.60220    1.000
    C92      C        0.67290    0.86600    0.94800    1.000
    C93      C        0.72382    0.89116    0.13700    1.000
    H69      H        0.73220    0.89050    0.23190    1.000
    C94      C        0.65629    0.71609    0.02170    1.000
    H70      H        0.68150    0.69510    0.02720    1.000
    C95      C        0.57572    0.73421    0.06450    1.000
    H71      H        0.54630    0.72510    0.09820    1.000
    C96      C        0.45932    0.96076    0.64250    1.000
    H72      H        0.46390    0.97570    0.72890    1.000
    C97      C        0.59123    0.91097    0.82440    1.000
    H73      H        0.61100    0.92960    0.87990    1.000
    C98      C        0.66234    0.76112    0.96400    1.000
    H74      H        0.69170    0.76990    0.92950    1.000
    C99      C        0.55544    0.93232    0.74800    1.000
    H75      H        0.55140    0.96510    0.75230    1.000
    C100     C        0.57578    0.59329    0.22910    1.000
    H76      H        0.55760    0.57400    0.28750    1.000
    C101     C        0.68454    0.86601    0.09010    1.000
    H77      H        0.66610    0.84920    0.15420    1.000
    C102     C        0.79821    0.95928    0.22440    1.000
    H78      H        0.77810    0.95400    0.30020    1.000
    C103     C        0.43187    0.94260    0.43980    1.000
    H79      H        0.41350    0.94230    0.35860    1.000
    C104     C        0.73959    0.91570    0.90240    1.000
    H80      H        0.75820    0.93260    0.83880    1.000
    C105     C        0.47014    0.91470    0.46400    1.000
    H81      H        0.48250    0.89190    0.40340    1.000
    C106     C        0.70190    0.89010    0.85450    1.000
    H82      H        0.69560    0.88880    0.75820    1.000
    C107     C        0.85630    0.98280    0.10620    1.000
    H83      H        0.88470    0.99720    0.08260    1.000
    C108     C        0.82760    0.95800    0.01120    1.000
    H84      H        0.83260    0.95250    0.91550    1.000
    Zn5      Zn       0.36845    0.48882    0.90457    1.000
    N29      N        0.13254    0.66051    0.40060    1.000
    N30      N        0.11102    0.92198    0.64250    1.000
    N31      N        0.98673    0.57343    0.09270    1.000
    N32      N        0.92492    0.52900    0.05500    1.000
    N33      N        0.10521    0.84468    0.62130    1.000
    C109     C        0.09805    0.63840    0.31890    1.000
    C110     C        0.12832    0.88394    0.57890    1.000
    H85      H        0.15290    0.88430    0.51420    1.000
    N34      N        0.29028    0.55644    0.59250    1.000
    C111     C        0.08235    0.72057    0.50780    1.000
    H86      H        0.05720    0.69940    0.50430    1.000
    C112     C        0.25005    0.58322    0.54280    1.000
    C113     C        0.12565    0.70688    0.45690    1.000
    C114     C        0.11310    0.79698    0.57030    1.000
    C115     C        0.07148    0.85871    0.71620    1.000
    H87      H        0.05000    0.83930    0.76250    1.000
    C116     C        0.02592    0.59472    0.16590    1.000
    N35      N        0.33774    0.51706    0.73320    1.000
    C117     C        0.06875    0.66479    0.23240    1.000
    H88      H        0.07350    0.69740    0.22430    1.000
    C118     C        0.03269    0.64353    0.15790    1.000
    H89      H        0.01290    0.66200    0.10220    1.000
    C119     C        0.17290    0.63400    0.44800    1.000
    C120     C        0.22382    0.60884    0.63700    1.000
    H90      H        0.23220    0.60950    0.73190    1.000
    C121     C        0.15629    0.78391    0.52170    1.000
    H91      H        0.18150    0.80490    0.52720    1.000
    C122     C        0.07572    0.76579    0.56450    1.000
    H92      H        0.04630    0.77490    0.59820    1.000
    C123     C        0.95932    0.53924    0.14250    1.000
    H93      H        0.96390    0.52430    0.22890    1.000
    C124     C        0.09123    0.58903    0.32440    1.000
    H94      H        0.11100    0.57040    0.37990    1.000
    C125     C        0.16234    0.73888    0.46400    1.000
    H95      H        0.19170    0.73010    0.42950    1.000
    C126     C        0.05544    0.56768    0.24800    1.000
    H96      H        0.05140    0.53490    0.25230    1.000
    C127     C        0.07578    0.90671    0.72910    1.000
    H97      H        0.05760    0.92600    0.78750    1.000
    C128     C        0.18454    0.63399    0.59010    1.000
    H98      H        0.16610    0.65080    0.65420    1.000
    C129     C        0.29821    0.54072    0.72440    1.000
    H99      H        0.27810    0.54600    0.80020    1.000
    C130     C        0.93187    0.55740    0.93980    1.000
    H100     H        0.91350    0.55770    0.85860    1.000
    C131     C        0.23959    0.58430    0.40240    1.000
    H101     H        0.25820    0.56740    0.33880    1.000
    C132     C        0.97014    0.58530    0.96400    1.000
    H102     H        0.98250    0.60810    0.90340    1.000
    C133     C        0.20190    0.60990    0.35450    1.000
    H103     H        0.19560    0.61120    0.25820    1.000
    C134     C        0.35630    0.51720    0.60620    1.000
    H104     H        0.38470    0.50280    0.58260    1.000
    C135     C        0.32760    0.54200    0.51120    1.000
    H105     H        0.33260    0.54750    0.41550    1.000
    Zn6      Zn       0.13155    0.98882    0.59543    1.000
    N36      N        0.36746    0.16051    0.09940    1.000
    N37      N        0.38898    0.42198    0.85750    1.000
    N38      N        0.51327    0.07343    0.40730    1.000
    N39      N        0.57508    0.02900    0.44500    1.000
    N40      N        0.39479    0.34468    0.87870    1.000
    C136     C        0.40195    0.13840    0.18110    1.000
    C137     C        0.37168    0.38394    0.92110    1.000
    H106     H        0.34710    0.38430    0.98580    1.000
    N41      N        0.20972    0.05644    0.90750    1.000
    C138     C        0.41765    0.22057    0.99220    1.000
    H107     H        0.44280    0.19940    0.99570    1.000
    C139     C        0.24995    0.08322    0.95720    1.000
    C140     C        0.37435    0.20688    0.04310    1.000
    C141     C        0.38690    0.29698    0.92970    1.000
    C142     C        0.42852    0.35871    0.78380    1.000
    H108     H        0.45000    0.33930    0.73750    1.000
    C143     C        0.47408    0.09472    0.33410    1.000
    N42      N        0.16226    0.01706    0.76680    1.000
    C144     C        0.43125    0.16479    0.26760    1.000
    H109     H        0.42650    0.19740    0.27570    1.000
    C145     C        0.46731    0.14353    0.34210    1.000
    H110     H        0.48710    0.16200    0.39780    1.000
    C146     C        0.32710    0.13400    0.05200    1.000
    C147     C        0.27618    0.10884    0.86300    1.000
    H111     H        0.26780    0.10950    0.76810    1.000
    C148     C        0.34371    0.28391    0.97830    1.000
    H112     H        0.31850    0.30490    0.97280    1.000
    C149     C        0.42428    0.26579    0.93550    1.000
    H113     H        0.45370    0.27490    0.90180    1.000
    C150     C        0.54068    0.03924    0.35750    1.000
    H114     H        0.53610    0.02430    0.27110    1.000
    C151     C        0.40877    0.08903    0.17560    1.000
    H115     H        0.38900    0.07040    0.12010    1.000
    C152     C        0.33766    0.23888    0.03600    1.000
    H116     H        0.30830    0.23010    0.07050    1.000
    C153     C        0.44456    0.06768    0.25200    1.000
    H117     H        0.44860    0.03490    0.24770    1.000
    C154     C        0.42422    0.40671    0.77090    1.000
    H118     H        0.44240    0.42600    0.71250    1.000
    C155     C        0.31546    0.13399    0.90990    1.000
    H119     H        0.33390    0.15080    0.84580    1.000
    C156     C        0.20179    0.04072    0.77560    1.000
    H120     H        0.22190    0.04600    0.69980    1.000
    C157     C        0.56813    0.05740    0.56020    1.000
    H121     H        0.58650    0.05770    0.64140    1.000
    C158     C        0.26041    0.08430    0.09760    1.000
    H122     H        0.24180    0.06740    0.16120    1.000
    C159     C        0.52986    0.08530    0.53600    1.000
    H123     H        0.51750    0.10810    0.59660    1.000
    C160     C        0.29810    0.10990    0.14550    1.000
    H124     H        0.30440    0.11120    0.24180    1.000
    C161     C        0.14370    0.01720    0.89380    1.000
    H125     H        0.11530    0.00280    0.91740    1.000
    C162     C        0.17240    0.04200    0.98880    1.000
    H126     H        0.16740    0.04750    0.08450    1.000
    Zn7      Zn       0.86845    0.48882    0.09543    1.000
    N43      N        0.63254    0.66051    0.59940    1.000
    N44      N        0.61102    0.92198    0.35750    1.000
    N45      N        0.48673    0.57343    0.90730    1.000
    N46      N        0.42492    0.52900    0.94500    1.000
    N47      N        0.60521    0.84468    0.37870    1.000
    C163     C        0.59805    0.63840    0.68110    1.000
    C164     C        0.62832    0.88394    0.42110    1.000
    H127     H        0.65290    0.88430    0.48580    1.000
    N48      N        0.79028    0.55644    0.40750    1.000
    C165     C        0.58235    0.72057    0.49220    1.000
    H128     H        0.55720    0.69940    0.49570    1.000
    C166     C        0.75005    0.58322    0.45720    1.000
    C167     C        0.62565    0.70688    0.54310    1.000
    C168     C        0.61310    0.79698    0.42970    1.000
    C169     C        0.57148    0.85871    0.28380    1.000
    H129     H        0.55000    0.83930    0.23750    1.000
    C170     C        0.52592    0.59472    0.83410    1.000
    N49      N        0.83774    0.51706    0.26680    1.000
    C171     C        0.56875    0.66479    0.76760    1.000
    H130     H        0.57350    0.69740    0.77570    1.000
    C172     C        0.53269    0.64353    0.84210    1.000
    H131     H        0.51290    0.66200    0.89780    1.000
    C173     C        0.67290    0.63400    0.55200    1.000
    C174     C        0.72382    0.60884    0.36300    1.000
    H132     H        0.73220    0.60950    0.26810    1.000
    C175     C        0.65629    0.78391    0.47830    1.000
    H133     H        0.68150    0.80490    0.47280    1.000
    C176     C        0.57572    0.76579    0.43550    1.000
    H134     H        0.54630    0.77490    0.40180    1.000
    C177     C        0.45932    0.53924    0.85750    1.000
    H135     H        0.46390    0.52430    0.77110    1.000
    C178     C        0.59123    0.58903    0.67560    1.000
    H136     H        0.61100    0.57040    0.62010    1.000
    C179     C        0.66234    0.73888    0.53600    1.000
    H137     H        0.69170    0.73010    0.57050    1.000
    C180     C        0.55544    0.56768    0.75200    1.000
    H138     H        0.55140    0.53490    0.74770    1.000
    C181     C        0.57578    0.90671    0.27090    1.000
    H139     H        0.55760    0.92600    0.21250    1.000
    C182     C        0.68454    0.63399    0.40990    1.000
    H140     H        0.66610    0.65080    0.34580    1.000
    C183     C        0.79821    0.54072    0.27560    1.000
    H141     H        0.77810    0.54600    0.19980    1.000
    C184     C        0.43187    0.55740    0.06020    1.000
    H142     H        0.41350    0.55770    0.14140    1.000
    C185     C        0.73959    0.58430    0.59760    1.000
    H143     H        0.75820    0.56740    0.66120    1.000
    C186     C        0.47014    0.58530    0.03600    1.000
    H144     H        0.48250    0.60810    0.09660    1.000
    C187     C        0.70190    0.60990    0.64550    1.000
    H145     H        0.69560    0.61120    0.74180    1.000
    C188     C        0.85630    0.51720    0.39380    1.000
    H146     H        0.88470    0.50280    0.41740    1.000
    C189     C        0.82760    0.54200    0.48880    1.000
    H147     H        0.83260    0.54750    0.58450    1.000
    Zn8      Zn       0.63155    0.98882    0.40457    1.000
    N50      N        0.86746    0.16051    0.90060    1.000
    N51      N        0.88898    0.42198    0.14250    1.000
    N52      N        0.01327    0.07343    0.59270    1.000
    N53      N        0.07508    0.02900    0.55500    1.000
    N54      N        0.89479    0.34468    0.12130    1.000
    C190     C        0.90195    0.13840    0.81890    1.000
    C191     C        0.87168    0.38394    0.07890    1.000
    H148     H        0.84710    0.38430    0.01420    1.000
    N55      N        0.70972    0.05644    0.09250    1.000
    C192     C        0.91765    0.22057    0.00780    1.000
    H149     H        0.94280    0.19940    0.00430    1.000
    C193     C        0.74995    0.08322    0.04280    1.000
    C194     C        0.87435    0.20688    0.95690    1.000
    C195     C        0.88690    0.29698    0.07030    1.000
    C196     C        0.92852    0.35871    0.21620    1.000
    H150     H        0.95000    0.33930    0.26250    1.000
    C197     C        0.97408    0.09472    0.66590    1.000
    N56      N        0.66226    0.01706    0.23320    1.000
    C198     C        0.93125    0.16479    0.73240    1.000
    H151     H        0.92650    0.19740    0.72430    1.000
    C199     C        0.96731    0.14353    0.65790    1.000
    H152     H        0.98710    0.16200    0.60220    1.000
    C200     C        0.82710    0.13400    0.94800    1.000
    C201     C        0.77618    0.10884    0.13700    1.000
    H153     H        0.76780    0.10950    0.23190    1.000
    C202     C        0.84371    0.28391    0.02170    1.000
    H154     H        0.81850    0.30490    0.02720    1.000
    C203     C        0.92428    0.26579    0.06450    1.000
    H155     H        0.95370    0.27490    0.09820    1.000
    C204     C        0.04068    0.03924    0.64250    1.000
    H156     H        0.03610    0.02430    0.72890    1.000
    C205     C        0.90877    0.08903    0.82440    1.000
    H157     H        0.88900    0.07040    0.87990    1.000
    C206     C        0.83766    0.23888    0.96400    1.000
    H158     H        0.80830    0.23010    0.92950    1.000
    C207     C        0.94456    0.06768    0.74800    1.000
    H159     H        0.94860    0.03490    0.75230    1.000
    C208     C        0.92422    0.40671    0.22910    1.000
    H160     H        0.94240    0.42600    0.28750    1.000
    C209     C        0.81546    0.13399    0.09010    1.000
    H161     H        0.83390    0.15080    0.15420    1.000
    C210     C        0.70179    0.04072    0.22440    1.000
    H162     H        0.72190    0.04600    0.30020    1.000
    C211     C        0.06813    0.05740    0.43980    1.000
    H163     H        0.08650    0.05770    0.35860    1.000
    C212     C        0.76041    0.08430    0.90240    1.000
    H164     H        0.74180    0.06740    0.83880    1.000
    C213     C        0.02986    0.08530    0.46400    1.000
    H165     H        0.01750    0.10810    0.40340    1.000
    C214     C        0.79810    0.10990    0.85450    1.000
    H166     H        0.80440    0.11120    0.75820    1.000
    C215     C        0.64370    0.01720    0.10620    1.000
    H167     H        0.61530    0.00280    0.08260    1.000
    C216     C        0.67240    0.04200    0.01120    1.000
    H168     H        0.66740    0.04750    0.91550    1.000
