# CIF file generated by openbabel 3.1.0, see https://openbabel.org
data_I
_chemical_name_common 'UVARIT_clean'
_cell_length_a 8.409
_cell_length_b 13.488
_cell_length_c 14.1302
_cell_angle_alpha 61.4924
_cell_angle_beta 85.7574
_cell_angle_gamma 81.0829
_space_group_name_H-M_alt 'P 1'
_space_group_name_Hall 'P 1'
loop_
    _symmetry_equiv_pos_as_xyz
    x,y,z
loop_
    _atom_site_label
    _atom_site_type_symbol
    _atom_site_fract_x
    _atom_site_fract_y
    _atom_site_fract_z
    _atom_site_occupancy
    Zn1      Zn       0.47811    0.61776    0.18240    1.000
    Zn2      Zn       0.97811    0.80016    0.81760    1.000
    H1       H        0.98360    0.46580    0.25860    1.000
    H2       H        0.22230    0.35040    0.33360    1.000
    H3       H        0.98290    0.14530    0.59700    1.000
    H4       H        0.74200    0.25930    0.52100    1.000
    H5       H        0.37730    0.19010    0.47200    1.000
    H6       H        0.21560    0.04700    0.65160    1.000
    H7       H        0.38400    0.91060    0.80440    1.000
    H8       H        0.63070    0.80630    0.87740    1.000
    H9       H        0.84200    0.96800    0.59760    1.000
    H10      H        0.60330    0.07590    0.51840    1.000
    H11      H        0.61810    0.96490    0.92260    1.000
    H12      H        0.70070    0.14480    0.86020    1.000
    H13      H        0.67210    0.10340    0.16280    1.000
    H14      H        0.58770    0.92860    0.22420    1.000
    H15      H        0.78520    0.28930    0.89000    1.000
    H16      H        0.74780    0.26720    0.09420    1.000
    H17      H        0.90430    0.43560    0.82980    1.000
    H18      H        0.98330    0.61640    0.76640    1.000
    H19      H        0.85110    0.61670    0.04080    1.000
    H20      H        0.78320    0.43540    0.11120    1.000
    H21      H        0.48360    0.72440    0.74140    1.000
    H22      H        0.72230    0.68400    0.66640    1.000
    H23      H        0.48290    0.74230    0.40300    1.000
    H24      H        0.24200    0.78030    0.47900    1.000
    H25      H        0.87730    0.66210    0.52800    1.000
    H26      H        0.71560    0.69860    0.34840    1.000
    H27      H        0.88400    0.71500    0.19560    1.000
    H28      H        0.13070    0.68370    0.12260    1.000
    H29      H        0.34200    0.56560    0.40240    1.000
    H30      H        0.10330    0.59430    0.48160    1.000
    H31      H        0.11810    0.88750    0.07740    1.000
    H32      H        0.20070    0.00500    0.13980    1.000
    H33      H        0.17210    0.26620    0.83720    1.000
    H34      H        0.08770    0.15280    0.77580    1.000
    H35      H        0.28520    0.17930    0.11000    1.000
    H36      H        0.24780    0.36140    0.90580    1.000
    H37      H        0.40430    0.26540    0.17020    1.000
    H38      H        0.48330    0.38280    0.23360    1.000
    H39      H        0.35110    0.65750    0.95920    1.000
    H40      H        0.28320    0.54660    0.88880    1.000
    C1       C        0.68170    0.44680    0.33440    1.000
    C2       C        0.83810    0.37450    0.38220    1.000
    C3       C        0.98290    0.40040    0.32740    1.000
    C4       C        0.12480    0.33170    0.37240    1.000
    C5       C        0.12980    0.23630    0.47240    1.000
    C6       C        0.98320    0.21020    0.52800    1.000
    C7       C        0.84000    0.27820    0.48300    1.000
    C8       C        0.28500    0.16610    0.51560    1.000
    C9       C        0.30830    0.07270    0.60940    1.000
    C10      C        0.46450    0.00520    0.65380    1.000
    C11      C        0.47720    0.92400    0.76020    1.000
    C12      C        0.62500    0.86160    0.80340    1.000
    C13      C        0.74710    0.95630    0.64020    1.000
    C14      C        0.60570    0.02080    0.59260    1.000
    C15      C        0.53860    0.81330    0.12260    1.000
    C16      C        0.59240    0.92960    0.07900    1.000
    C17      C        0.62820    0.99320    0.97160    1.000
    C18      C        0.67970    0.10020    0.93460    1.000
    C19      C        0.70010    0.14080    0.00520    1.000
    C20      C        0.66210    0.07540    0.11360    1.000
    C21      C        0.61100    0.97210    0.15000    1.000
    C22      C        0.75740    0.25200    0.96420    1.000
    C23      C        0.77380    0.30480    0.01980    1.000
    C24      C        0.82880    0.41690    0.97740    1.000
    C25      C        0.89240    0.47140    0.87420    1.000
    C26      C        0.93890    0.58010    0.83660    1.000
    C27      C        0.86350    0.57990    0.99720    1.000
    C28      C        0.81990    0.47220    0.03880    1.000
    C29      C        0.18170    0.78120    0.66560    1.000
    C30      C        0.33810    0.75670    0.61780    1.000
    C31      C        0.48290    0.72780    0.67260    1.000
    C32      C        0.62480    0.70410    0.62760    1.000
    C33      C        0.62980    0.70870    0.52760    1.000
    C34      C        0.48320    0.73820    0.47200    1.000
    C35      C        0.34000    0.76120    0.51700    1.000
    C36      C        0.78500    0.68170    0.48440    1.000
    C37      C        0.80830    0.68210    0.39060    1.000
    C38      C        0.96450    0.65900    0.34620    1.000
    C39      C        0.97720    0.68420    0.23980    1.000
    C40      C        0.12500    0.66500    0.19660    1.000
    C41      C        0.24710    0.59650    0.35980    1.000
    C42      C        0.10570    0.61340    0.40740    1.000
    C43      C        0.03860    0.93590    0.87740    1.000
    C44      C        0.09240    0.00860    0.92100    1.000
    C45      C        0.12820    0.96480    0.02840    1.000
    C46      C        0.17970    0.03480    0.06540    1.000
    C47      C        0.20010    0.14600    0.99480    1.000
    C48      C        0.16210    0.18900    0.88640    1.000
    C49      C        0.11100    0.12210    0.85000    1.000
    C50      C        0.25740    0.21620    0.03580    1.000
    C51      C        0.27380    0.32460    0.98020    1.000
    C52      C        0.32880    0.39430    0.02260    1.000
    C53      C        0.39240    0.34560    0.12580    1.000
    C54      C        0.43890    0.41670    0.16340    1.000
    C55      C        0.36350    0.57710    0.00280    1.000
    C56      C        0.31990    0.51100    0.96120    1.000
    N1       N        0.75930    0.87670    0.74460    1.000
    N2       N        0.92280    0.63450    0.89680    1.000
    N3       N        0.25930    0.62130    0.25540    1.000
    N4       N        0.42280    0.53130    0.10320    1.000
    O1       O        0.68920    0.52992    0.23816    1.000
    O2       O        0.55400    0.42336    0.38388    1.000
    O3       O        0.52500    0.77361    0.05818    1.000
    O4       O        0.51540    0.75850    0.22140    1.000
    O5       O        0.18920    0.76808    0.76184    1.000
    O6       O        0.05400    0.80724    0.61612    1.000
    O7       O        0.02500    0.83179    0.94182    1.000
    O8       O        0.01540    0.97990    0.77860    1.000
