# CIF file generated by openbabel 3.1.0, see https://openbabel.org
data_I
_chemical_name_common 'DONNAW01'
_cell_length_a 17.437
_cell_length_b 6.7475
_cell_length_c 12.1541
_cell_angle_alpha 90
_cell_angle_beta 90
_cell_angle_gamma 90
_space_group_name_H-M_alt 'P n m a'
_space_group_name_Hall '-P 2ac 2n'
loop_
    _symmetry_equiv_pos_as_xyz
    x,y,z
    1/2-x,-y,1/2+z
    -x,1/2+y,-z
    1/2+x,1/2-y,1/2-z
    -x,-y,-z
    1/2+x,y,1/2-z
    x,1/2-y,z
    1/2-x,1/2+y,1/2+z
loop_
    _atom_site_label
    _atom_site_type_symbol
    _atom_site_fract_x
    _atom_site_fract_y
    _atom_site_fract_z
    _atom_site_occupancy
    O1       O        0.92632    0.08300    0.88584    1.000
    O2       O        0.58949    0.08260    0.58860    1.000
    C3       C        0.79127    0.42880    0.76510    1.000
    H4       H        0.81190    0.56610    0.79890    1.000
    C5       C        0.72605    0.42740    0.69950    1.000
    H6       H        0.70210    0.56470    0.67040    1.000
    H7       H        0.50640    0.75000    0.65568    1.000
    Ga8      Ga       0.00000    0.00000    0.00000    1.000
    O9       O        0.99360    0.25000    0.07340    1.000
    C10      C        0.82814    0.25000    0.79140    1.000
    C11      C        0.89907    0.25000    0.86000    1.000
    C12      C        0.69218    0.25000    0.67120    1.000
    C13      C        0.61762    0.25000    0.61080    1.000
