# CIF file generated by openbabel 3.1.0, see https://openbabel.org
data_I
_chemical_name_common 'NEGZUW_clean'
_cell_length_a 17.2999
_cell_length_b 18.0396
_cell_length_c 24.677
_cell_angle_alpha 90
_cell_angle_beta 90
_cell_angle_gamma 90
_space_group_name_H-M_alt 'P 1'
_space_group_name_Hall 'P 1'
loop_
    _symmetry_equiv_pos_as_xyz
    x,y,z
loop_
    _atom_site_label
    _atom_site_type_symbol
    _atom_site_fract_x
    _atom_site_fract_y
    _atom_site_fract_z
    _atom_site_occupancy
    V1       V        0.83683    0.30552    0.90768    1.000
    V2       V        0.90420    0.30175    0.02313    1.000
    V3       V        0.68179    0.38637    0.88494    1.000
    V4       V        0.68206    0.21670    0.88556    1.000
    V5       V        0.33683    0.19448    0.59232    1.000
    V6       V        0.40420    0.19825    0.47687    1.000
    V7       V        0.18179    0.11363    0.61506    1.000
    V8       V        0.18206    0.28330    0.61444    1.000
    V9       V        0.66317    0.30552    0.09232    1.000
    V10      V        0.59580    0.30175    0.97687    1.000
    V11      V        0.81821    0.38637    0.11506    1.000
    V12      V        0.81794    0.21670    0.11444    1.000
    V13      V        0.16317    0.19448    0.40768    1.000
    V14      V        0.09580    0.19825    0.52313    1.000
    V15      V        0.31821    0.11363    0.38494    1.000
    V16      V        0.31794    0.28330    0.38556    1.000
    V17      V        0.16317    0.69448    0.09232    1.000
    V18      V        0.09580    0.69825    0.97687    1.000
    V19      V        0.31821    0.61363    0.11506    1.000
    V20      V        0.31794    0.78330    0.11444    1.000
    V21      V        0.66317    0.80552    0.40768    1.000
    V22      V        0.59580    0.80175    0.52313    1.000
    V23      V        0.81821    0.88637    0.38494    1.000
    V24      V        0.81794    0.71670    0.38556    1.000
    V25      V        0.33683    0.69448    0.90768    1.000
    V26      V        0.40420    0.69825    0.02313    1.000
    V27      V        0.18179    0.61363    0.88494    1.000
    V28      V        0.18206    0.78330    0.88556    1.000
    V29      V        0.83683    0.80552    0.59232    1.000
    V30      V        0.90420    0.80175    0.47687    1.000
    V31      V        0.68179    0.88637    0.61506    1.000
    V32      V        0.68206    0.71670    0.61444    1.000
    V33      V        0.75000    0.39299    0.00000    1.000
    V34      V        0.75000    0.21193    0.00000    1.000
    V35      V        0.25000    0.10701    0.50000    1.000
    V36      V        0.25000    0.28807    0.50000    1.000
    V37      V        0.25000    0.60701    0.00000    1.000
    V38      V        0.25000    0.78807    0.00000    1.000
    V39      V        0.75000    0.89299    0.50000    1.000
    V40      V        0.75000    0.71193    0.50000    1.000
    Zn1      Zn       0.69861    0.34922    0.66729    1.000
    Zn2      Zn       0.85081    0.15052    0.83225    1.000
    Zn3      Zn       0.90436    0.07078    0.70371    1.000
    Zn4      Zn       0.19861    0.15078    0.83271    1.000
    Zn5      Zn       0.35081    0.34948    0.66775    1.000
    Zn6      Zn       0.40436    0.42922    0.79629    1.000
    Zn7      Zn       0.80139    0.34922    0.33271    1.000
    Zn8      Zn       0.64919    0.15052    0.16775    1.000
    Zn9      Zn       0.59564    0.07078    0.29629    1.000
    Zn10     Zn       0.30139    0.15078    0.16729    1.000
    Zn11     Zn       0.14919    0.34948    0.33225    1.000
    Zn12     Zn       0.09564    0.42922    0.20371    1.000
    Zn13     Zn       0.30139    0.65078    0.33271    1.000
    Zn14     Zn       0.14919    0.84948    0.16775    1.000
    Zn15     Zn       0.09564    0.92922    0.29629    1.000
    Zn16     Zn       0.80139    0.84922    0.16729    1.000
    Zn17     Zn       0.64919    0.65052    0.33225    1.000
    Zn18     Zn       0.59564    0.57078    0.20371    1.000
    Zn19     Zn       0.19861    0.65078    0.66729    1.000
    Zn20     Zn       0.35081    0.84948    0.83225    1.000
    Zn21     Zn       0.40436    0.92922    0.70371    1.000
    Zn22     Zn       0.69861    0.84922    0.83271    1.000
    Zn23     Zn       0.85081    0.65052    0.66775    1.000
    Zn24     Zn       0.90436    0.57078    0.79629    1.000
    H1       H        0.74750    0.00890    0.87180    1.000
    H2       H        0.74750    0.28250    0.77600    1.000
    H3       H        0.79990    0.91800    0.73290    1.000
    H4       H        0.09050    0.09540    0.73270    1.000
    H5       H        0.80020    0.20030    0.63390    1.000
    H6       H        0.02840    0.18980    0.86880    1.000
    H7       H        0.24750    0.49110    0.62820    1.000
    H8       H        0.24750    0.21750    0.72400    1.000
    H9       H        0.29990    0.58200    0.76710    1.000
    H10      H        0.59050    0.40460    0.76730    1.000
    H11      H        0.30020    0.29970    0.86610    1.000
    H12      H        0.52840    0.31020    0.63120    1.000
    H13      H        0.75250    0.00890    0.12820    1.000
    H14      H        0.75250    0.28250    0.22400    1.000
    H15      H        0.70010    0.91800    0.26710    1.000
    H16      H        0.40950    0.09540    0.26730    1.000
    H17      H        0.69980    0.20030    0.36610    1.000
    H18      H        0.47160    0.18980    0.13120    1.000
    H19      H        0.25250    0.49110    0.37180    1.000
    H20      H        0.25250    0.21750    0.27600    1.000
    H21      H        0.20010    0.58200    0.23290    1.000
    H22      H        0.90950    0.40460    0.23270    1.000
    H23      H        0.19980    0.29970    0.13390    1.000
    H24      H        0.97160    0.31020    0.36880    1.000
    H25      H        0.25250    0.99110    0.12820    1.000
    H26      H        0.25250    0.71750    0.22400    1.000
    H27      H        0.20010    0.08200    0.26710    1.000
    H28      H        0.90950    0.90460    0.26730    1.000
    H29      H        0.19980    0.79970    0.36610    1.000
    H30      H        0.97160    0.81020    0.13120    1.000
    H31      H        0.75250    0.50890    0.37180    1.000
    H32      H        0.75250    0.78250    0.27600    1.000
    H33      H        0.70010    0.41800    0.23290    1.000
    H34      H        0.40950    0.59540    0.23270    1.000
    H35      H        0.69980    0.70030    0.13390    1.000
    H36      H        0.47160    0.68980    0.36880    1.000
    H37      H        0.24750    0.99110    0.87180    1.000
    H38      H        0.24750    0.71750    0.77600    1.000
    H39      H        0.29990    0.08200    0.73290    1.000
    H40      H        0.59050    0.90460    0.73270    1.000
    H41      H        0.30020    0.79970    0.63390    1.000
    H42      H        0.52840    0.81020    0.86880    1.000
    H43      H        0.74750    0.50890    0.62820    1.000
    H44      H        0.74750    0.78250    0.72400    1.000
    H45      H        0.79990    0.41800    0.76710    1.000
    H46      H        0.09050    0.59540    0.76730    1.000
    H47      H        0.80020    0.70030    0.86610    1.000
    H48      H        0.02840    0.68980    0.63120    1.000
    C1       C        0.76890    0.00050    0.83686    1.000
    C2       C        0.76870    0.25190    0.74834    1.000
    C3       C        0.79730    0.95170    0.76239    1.000
    C4       C        0.06010    0.11530    0.76129    1.000
    C5       C        0.79710    0.20770    0.67200    1.000
    C6       C        0.02690    0.16610    0.83445    1.000
    C7       C        0.26890    0.49950    0.66314    1.000
    C8       C        0.26870    0.24810    0.75166    1.000
    C9       C        0.29730    0.54830    0.73761    1.000
    C10      C        0.56010    0.38470    0.73871    1.000
    C11      C        0.29710    0.29230    0.82800    1.000
    C12      C        0.52690    0.33390    0.66555    1.000
    C13      C        0.73110    0.00050    0.16314    1.000
    C14      C        0.73130    0.25190    0.25166    1.000
    C15      C        0.70270    0.95170    0.23761    1.000
    C16      C        0.43990    0.11530    0.23871    1.000
    C17      C        0.70290    0.20770    0.32800    1.000
    C18      C        0.47310    0.16610    0.16555    1.000
    C19      C        0.23110    0.49950    0.33686    1.000
    C20      C        0.23130    0.24810    0.24834    1.000
    C21      C        0.20270    0.54830    0.26239    1.000
    C22      C        0.93990    0.38470    0.26129    1.000
    C23      C        0.20290    0.29230    0.17200    1.000
    C24      C        0.97310    0.33390    0.33445    1.000
    C25      C        0.23110    0.99950    0.16314    1.000
    C26      C        0.23130    0.74810    0.25166    1.000
    C27      C        0.20270    0.04830    0.23761    1.000
    C28      C        0.93990    0.88470    0.23871    1.000
    C29      C        0.20290    0.79230    0.32800    1.000
    C30      C        0.97310    0.83390    0.16555    1.000
    C31      C        0.73110    0.50050    0.33686    1.000
    C32      C        0.73130    0.75190    0.24834    1.000
    C33      C        0.70270    0.45170    0.26239    1.000
    C34      C        0.43990    0.61530    0.26129    1.000
    C35      C        0.70290    0.70770    0.17200    1.000
    C36      C        0.47310    0.66610    0.33445    1.000
    C37      C        0.26890    0.99950    0.83686    1.000
    C38      C        0.26870    0.74810    0.74834    1.000
    C39      C        0.29730    0.04830    0.76239    1.000
    C40      C        0.56010    0.88470    0.76129    1.000
    C41      C        0.29710    0.79230    0.67200    1.000
    C42      C        0.52690    0.83390    0.83445    1.000
    C43      C        0.76890    0.50050    0.66314    1.000
    C44      C        0.76870    0.75190    0.75166    1.000
    C45      C        0.79730    0.45170    0.73761    1.000
    C46      C        0.06010    0.61530    0.73871    1.000
    C47      C        0.79710    0.70770    0.82800    1.000
    C48      C        0.02690    0.66610    0.66555    1.000
    N1       N        0.75620    0.26265    0.69551    1.000
    N2       N        0.75570    0.93900    0.80772    1.000
    N3       N        0.81400    0.04732    0.81238    1.000
    N4       N        0.96291    0.14900    0.80904    1.000
    N5       N        0.83350    0.01520    0.76336    1.000
    N6       N        0.83225    0.16556    0.70797    1.000
    N7       N        0.81310    0.19480    0.75791    1.000
    N8       N        0.98415    0.11584    0.76137    1.000
    N9       N        0.09010    0.14650    0.80653    1.000
    N10      N        0.25620    0.23735    0.80449    1.000
    N11      N        0.25570    0.56100    0.69228    1.000
    N12      N        0.31400    0.45268    0.68762    1.000
    N13      N        0.46291    0.35100    0.69096    1.000
    N14      N        0.33350    0.48480    0.73664    1.000
    N15      N        0.33225    0.33444    0.79203    1.000
    N16      N        0.31310    0.30520    0.74209    1.000
    N17      N        0.48415    0.38416    0.73863    1.000
    N18      N        0.59010    0.35350    0.69347    1.000
    N19      N        0.74380    0.26265    0.30449    1.000
    N20      N        0.74430    0.93900    0.19228    1.000
    N21      N        0.68600    0.04732    0.18762    1.000
    N22      N        0.53709    0.14900    0.19096    1.000
    N23      N        0.66650    0.01520    0.23664    1.000
    N24      N        0.66775    0.16556    0.29203    1.000
    N25      N        0.68690    0.19480    0.24209    1.000
    N26      N        0.51585    0.11584    0.23863    1.000
    N27      N        0.40990    0.14650    0.19347    1.000
    N28      N        0.24380    0.23735    0.19551    1.000
    N29      N        0.24430    0.56100    0.30772    1.000
    N30      N        0.18600    0.45268    0.31238    1.000
    N31      N        0.03709    0.35100    0.30904    1.000
    N32      N        0.16650    0.48480    0.26336    1.000
    N33      N        0.16775    0.33444    0.20797    1.000
    N34      N        0.18690    0.30520    0.25791    1.000
    N35      N        0.01585    0.38416    0.26137    1.000
    N36      N        0.90990    0.35350    0.30653    1.000
    N37      N        0.24380    0.73735    0.30449    1.000
    N38      N        0.24430    0.06100    0.19228    1.000
    N39      N        0.18600    0.95268    0.18762    1.000
    N40      N        0.03709    0.85100    0.19096    1.000
    N41      N        0.16650    0.98480    0.23664    1.000
    N42      N        0.16775    0.83444    0.29203    1.000
    N43      N        0.18690    0.80520    0.24209    1.000
    N44      N        0.01585    0.88416    0.23863    1.000
    N45      N        0.90990    0.85350    0.19347    1.000
    N46      N        0.74380    0.76265    0.19551    1.000
    N47      N        0.74430    0.43900    0.30772    1.000
    N48      N        0.68600    0.54732    0.31238    1.000
    N49      N        0.53709    0.64900    0.30904    1.000
    N50      N        0.66650    0.51520    0.26336    1.000
    N51      N        0.66775    0.66556    0.20797    1.000
    N52      N        0.68690    0.69480    0.25791    1.000
    N53      N        0.51585    0.61584    0.26137    1.000
    N54      N        0.40990    0.64650    0.30653    1.000
    N55      N        0.25620    0.73735    0.69551    1.000
    N56      N        0.25570    0.06100    0.80772    1.000
    N57      N        0.31400    0.95268    0.81238    1.000
    N58      N        0.46291    0.85100    0.80904    1.000
    N59      N        0.33350    0.98480    0.76336    1.000
    N60      N        0.33225    0.83444    0.70797    1.000
    N61      N        0.31310    0.80520    0.75791    1.000
    N62      N        0.48415    0.88416    0.76137    1.000
    N63      N        0.59010    0.85350    0.80653    1.000
    N64      N        0.75620    0.76265    0.80449    1.000
    N65      N        0.75570    0.43900    0.69228    1.000
    N66      N        0.81400    0.54732    0.68762    1.000
    N67      N        0.96291    0.64900    0.69096    1.000
    N68      N        0.83350    0.51520    0.73664    1.000
    N69      N        0.83225    0.66556    0.79203    1.000
    N70      N        0.81310    0.69480    0.74209    1.000
    N71      N        0.98415    0.61584    0.73863    1.000
    N72      N        0.09010    0.64650    0.69347    1.000
    O1       O        0.72052    0.15513    0.94961    1.000
    O2       O        0.85117    0.23420    0.97120    1.000
    O3       O        0.72034    0.44884    0.94913    1.000
    O4       O        0.66126    0.30154    0.84760    1.000
    O5       O        0.85165    0.37103    0.97124    1.000
    O6       O        0.90779    0.37597    0.07348    1.000
    O7       O        0.72131    0.30227    0.94957    1.000
    O8       O        0.90751    0.22719    0.07320    1.000
    O9       O        0.78983    0.37736    0.86994    1.000
    O10      O        0.79061    0.22664    0.87140    1.000
    O11      O        0.22052    0.34487    0.55039    1.000
    O12      O        0.35117    0.26580    0.52880    1.000
    O13      O        0.22034    0.05116    0.55087    1.000
    O14      O        0.16126    0.19846    0.65240    1.000
    O15      O        0.35165    0.12897    0.52876    1.000
    O16      O        0.40779    0.12403    0.42652    1.000
    O17      O        0.22131    0.19773    0.55043    1.000
    O18      O        0.40751    0.27281    0.42680    1.000
    O19      O        0.28983    0.12264    0.63006    1.000
    O20      O        0.29061    0.27336    0.62860    1.000
    O21      O        0.77948    0.15513    0.05039    1.000
    O22      O        0.64883    0.23420    0.02880    1.000
    O23      O        0.77966    0.44884    0.05087    1.000
    O24      O        0.83874    0.30154    0.15240    1.000
    O25      O        0.64835    0.37103    0.02876    1.000
    O26      O        0.59221    0.37597    0.92652    1.000
    O27      O        0.77869    0.30227    0.05043    1.000
    O28      O        0.59249    0.22719    0.92680    1.000
    O29      O        0.71017    0.37736    0.13006    1.000
    O30      O        0.70939    0.22664    0.12860    1.000
    O31      O        0.27948    0.34487    0.44961    1.000
    O32      O        0.14883    0.26580    0.47120    1.000
    O33      O        0.27966    0.05116    0.44913    1.000
    O34      O        0.33874    0.19846    0.34760    1.000
    O35      O        0.14835    0.12897    0.47124    1.000
    O36      O        0.09221    0.12403    0.57348    1.000
    O37      O        0.27869    0.19773    0.44957    1.000
    O38      O        0.09249    0.27281    0.57320    1.000
    O39      O        0.21017    0.12264    0.36994    1.000
    O40      O        0.20939    0.27336    0.37140    1.000
    O41      O        0.27948    0.84487    0.05039    1.000
    O42      O        0.14883    0.76580    0.02880    1.000
    O43      O        0.27966    0.55116    0.05087    1.000
    O44      O        0.33874    0.69846    0.15240    1.000
    O45      O        0.14835    0.62897    0.02876    1.000
    O46      O        0.09221    0.62403    0.92652    1.000
    O47      O        0.27869    0.69773    0.05043    1.000
    O48      O        0.09249    0.77281    0.92680    1.000
    O49      O        0.21017    0.62264    0.13006    1.000
    O50      O        0.20939    0.77336    0.12860    1.000
    O51      O        0.77948    0.65513    0.44961    1.000
    O52      O        0.64883    0.73420    0.47120    1.000
    O53      O        0.77966    0.94884    0.44913    1.000
    O54      O        0.83874    0.80154    0.34760    1.000
    O55      O        0.64835    0.87103    0.47124    1.000
    O56      O        0.59221    0.87597    0.57348    1.000
    O57      O        0.77869    0.80227    0.44957    1.000
    O58      O        0.59249    0.72719    0.57320    1.000
    O59      O        0.71017    0.87736    0.36994    1.000
    O60      O        0.70939    0.72664    0.37140    1.000
    O61      O        0.22052    0.84487    0.94961    1.000
    O62      O        0.35117    0.76580    0.97120    1.000
    O63      O        0.22034    0.55116    0.94913    1.000
    O64      O        0.16126    0.69846    0.84760    1.000
    O65      O        0.35165    0.62897    0.97124    1.000
    O66      O        0.40779    0.62403    0.07348    1.000
    O67      O        0.22131    0.69773    0.94957    1.000
    O68      O        0.40751    0.77281    0.07320    1.000
    O69      O        0.28983    0.62264    0.86994    1.000
    O70      O        0.29061    0.77336    0.87140    1.000
    O71      O        0.72052    0.65513    0.55039    1.000
    O72      O        0.85117    0.73420    0.52880    1.000
    O73      O        0.72034    0.94884    0.55087    1.000
    O74      O        0.66126    0.80154    0.65240    1.000
    O75      O        0.85165    0.87103    0.52876    1.000
    O76      O        0.90779    0.87597    0.42652    1.000
    O77      O        0.72131    0.80227    0.55043    1.000
    O78      O        0.90751    0.72719    0.42680    1.000
    O79      O        0.78983    0.87736    0.63006    1.000
    O80      O        0.79061    0.72664    0.62860    1.000
