# CIF file generated by openbabel 3.1.0, see https://openbabel.org
data_I
_chemical_name_common 'image0'
_cell_length_a 31.281
_cell_length_b 10.5676
_cell_length_c 19.875
_cell_angle_alpha 90
_cell_angle_beta 94.444
_cell_angle_gamma 90
_space_group_name_H-M_alt 'P 1'
_space_group_name_Hall 'P 1'
loop_
    _symmetry_equiv_pos_as_xyz
    x,y,z
loop_
    _atom_site_label
    _atom_site_type_symbol
    _atom_site_fract_x
    _atom_site_fract_y
    _atom_site_fract_z
    _atom_site_occupancy
    Co1      Co       0.32813    0.84107    0.25700    1.000
    O1       O        0.26669    0.85700    0.20796    1.000
    O2       O        0.39024    0.79600    0.30321    1.000
    H1       H        0.40130    0.86000    0.32020    1.000
    O3       O        0.05165    0.96110    0.07344    1.000
    O4       O        0.09579    0.12570    0.09058    1.000
    O5       O        0.25040    0.04620    0.16497    1.000
    C1       C        0.12206    0.92250    0.12262    1.000
    C2       C        0.16317    0.96790    0.13757    1.000
    H2       H        0.16930    0.05230    0.12910    1.000
    N1       N        0.32832    0.65660    0.21517    1.000
    O6       O        0.29424    0.77200    0.34025    1.000
    H3       H        0.28280    0.70430    0.32980    1.000
    N2       N        0.98896    0.18780    0.03346    1.000
    N3       N        0.02060    0.25860    0.06297    1.000
    H4       H        0.04620    0.23150    0.07310    1.000
    C3       C        0.19543    0.88900    0.16515    1.000
    C4       C        0.24083    0.93560    0.18016    1.000
    C5       C        0.14496    0.71370    0.16040    1.000
    C6       C        0.08715    0.01030    0.09315    1.000
    C7       C        0.95540    0.26520    0.02687    1.000
    H5       H        0.92850    0.24160    0.00780    1.000
    C8       C        0.96510    0.38500    0.05161    1.000
    C9       C        0.11292    0.79480    0.13277    1.000
    H6       H        0.08550    0.76380    0.12120    1.000
    C10      C        0.18546    0.76380    0.17768    1.000
    H7       H        0.20650    0.71160    0.19830    1.000
    C11      C        0.00749    0.37720    0.07483    1.000
    H8       H        0.02410    0.44190    0.09500    1.000
    C12      C        0.33992    0.46130    0.17501    1.000
    C13      C        0.35774    0.57140    0.20400    1.000
    H9       H        0.38700    0.58330    0.21430    1.000
    N4       N        0.29123    0.60090    0.19306    1.000
    H10      H        0.26660    0.63650    0.19390    1.000
    C14      C        0.93663    0.49970    0.05220    1.000
    H11      H        0.95360    0.57100    0.06960    1.000
    H12      H        0.92630    0.51940    0.00620    1.000
    C15      C        0.36199    0.34130    0.15800    1.000
    H13      H        0.34420    0.29670    0.12360    1.000
    H14      H        0.36480    0.28800    0.19780    1.000
    C16      C        0.29692    0.48440    0.16960    1.000
    H15      H        0.27550    0.42920    0.15270    1.000
    C17      C        0.40563    0.36090    0.13310    1.000
    C18      C        0.41708    0.42940    0.07840    1.000
    H16      H        0.39760    0.47420    0.04990    1.000
    C19      C        0.44290    0.30880    0.15670    1.000
    H17      H        0.44650    0.25430    0.19350    1.000
    N5       N        0.45881    0.42510    0.07059    1.000
    N6       N        0.47363    0.34720    0.11960    1.000
    H18      H        0.50000    0.32460    0.12620    1.000
    N7       N        0.85746    0.42430    0.17675    1.000
    C20      C        0.89888    0.48430    0.09360    1.000
    N8       N        0.83619    0.50690    0.13462    1.000
    H19      H        0.81050    0.53270    0.13890    1.000
    C21      C        0.85993    0.54350    0.08590    1.000
    H20      H        0.85150    0.60040    0.05170    1.000
    C22      C        0.89545    0.41090    0.15140    1.000
    H21      H        0.91720    0.35880    0.17010    1.000
    O7       O        0.16939    0.51173    0.19252    1.000
    O8       O        0.09985    0.53350    0.16018    1.000
    C23      C        0.13745    0.57750    0.17260    1.000
    Co2      Co       0.82813    0.34107    0.25700    1.000
    O9       O        0.76669    0.35700    0.20796    1.000
    O10      O        0.89024    0.29600    0.30321    1.000
    H22      H        0.90130    0.36000    0.32020    1.000
    O11      O        0.55165    0.46110    0.07344    1.000
    O12      O        0.59579    0.62570    0.09058    1.000
    O13      O        0.75040    0.54620    0.16497    1.000
    C24      C        0.62206    0.42250    0.12262    1.000
    C25      C        0.66317    0.46790    0.13757    1.000
    H23      H        0.66930    0.55230    0.12910    1.000
    N9       N        0.82832    0.15660    0.21517    1.000
    O14      O        0.79424    0.27200    0.34025    1.000
    H24      H        0.78280    0.20430    0.32980    1.000
    N10      N        0.48896    0.68780    0.03346    1.000
    N11      N        0.52060    0.75860    0.06297    1.000
    H25      H        0.54620    0.73150    0.07310    1.000
    C26      C        0.69543    0.38900    0.16515    1.000
    C27      C        0.74083    0.43560    0.18016    1.000
    C28      C        0.64496    0.21370    0.16040    1.000
    C29      C        0.58715    0.51030    0.09315    1.000
    C30      C        0.45540    0.76520    0.02687    1.000
    H26      H        0.42850    0.74160    0.00780    1.000
    C31      C        0.46510    0.88500    0.05161    1.000
    C32      C        0.61292    0.29480    0.13277    1.000
    H27      H        0.58550    0.26380    0.12120    1.000
    C33      C        0.68546    0.26380    0.17768    1.000
    H28      H        0.70650    0.21160    0.19830    1.000
    C34      C        0.50749    0.87720    0.07483    1.000
    H29      H        0.52410    0.94190    0.09500    1.000
    C35      C        0.83992    0.96130    0.17501    1.000
    C36      C        0.85774    0.07140    0.20400    1.000
    H30      H        0.88700    0.08330    0.21430    1.000
    N12      N        0.79123    0.10090    0.19306    1.000
    H31      H        0.76660    0.13650    0.19390    1.000
    C37      C        0.43663    0.99970    0.05220    1.000
    H32      H        0.45360    0.07100    0.06960    1.000
    H33      H        0.42630    0.01940    0.00620    1.000
    C38      C        0.86199    0.84130    0.15800    1.000
    H34      H        0.84420    0.79670    0.12360    1.000
    H35      H        0.86480    0.78800    0.19780    1.000
    C39      C        0.79692    0.98440    0.16960    1.000
    H36      H        0.77550    0.92920    0.15270    1.000
    C40      C        0.90563    0.86090    0.13310    1.000
    C41      C        0.91708    0.92940    0.07840    1.000
    H37      H        0.89760    0.97420    0.04990    1.000
    C42      C        0.94290    0.80880    0.15670    1.000
    H38      H        0.94650    0.75430    0.19350    1.000
    N13      N        0.95881    0.92510    0.07059    1.000
    N14      N        0.97363    0.84720    0.11960    1.000
    H39      H        0.00000    0.82460    0.12620    1.000
    N15      N        0.35746    0.92430    0.17675    1.000
    C43      C        0.39888    0.98430    0.09360    1.000
    N16      N        0.33619    0.00690    0.13462    1.000
    H40      H        0.31050    0.03270    0.13890    1.000
    C44      C        0.35993    0.04350    0.08590    1.000
    H41      H        0.35150    0.10040    0.05170    1.000
    C45      C        0.39545    0.91090    0.15140    1.000
    H42      H        0.41720    0.85880    0.17010    1.000
    O15      O        0.66939    0.01173    0.19252    1.000
    O16      O        0.59985    0.03350    0.16018    1.000
    C46      C        0.63745    0.07750    0.17260    1.000
    Co3      Co       0.67187    0.84107    0.24300    1.000
    O17      O        0.73331    0.85700    0.29204    1.000
    O18      O        0.60976    0.79600    0.19679    1.000
    H43      H        0.59870    0.86000    0.17980    1.000
    O19      O        0.94835    0.96110    0.42656    1.000
    O20      O        0.90421    0.12570    0.40942    1.000
    O21      O        0.74960    0.04620    0.33503    1.000
    C47      C        0.87794    0.92250    0.37738    1.000
    C48      C        0.83683    0.96790    0.36243    1.000
    H44      H        0.83070    0.05230    0.37090    1.000
    N17      N        0.67168    0.65660    0.28483    1.000
    O22      O        0.70576    0.77200    0.15975    1.000
    H45      H        0.71720    0.70430    0.17020    1.000
    N18      N        0.01104    0.18780    0.46654    1.000
    N19      N        0.97940    0.25860    0.43703    1.000
    H46      H        0.95380    0.23150    0.42690    1.000
    C49      C        0.80457    0.88900    0.33485    1.000
    C50      C        0.75917    0.93560    0.31984    1.000
    C51      C        0.85504    0.71370    0.33960    1.000
    C52      C        0.91285    0.01030    0.40685    1.000
    C53      C        0.04460    0.26520    0.47313    1.000
    H47      H        0.07150    0.24160    0.49220    1.000
    C54      C        0.03490    0.38500    0.44839    1.000
    C55      C        0.88708    0.79480    0.36723    1.000
    H48      H        0.91450    0.76380    0.37880    1.000
    C56      C        0.81454    0.76380    0.32232    1.000
    H49      H        0.79350    0.71160    0.30170    1.000
    C57      C        0.99251    0.37720    0.42517    1.000
    H50      H        0.97590    0.44190    0.40500    1.000
    C58      C        0.66008    0.46130    0.32499    1.000
    C59      C        0.64226    0.57140    0.29600    1.000
    H51      H        0.61300    0.58330    0.28570    1.000
    N20      N        0.70877    0.60090    0.30694    1.000
    H52      H        0.73340    0.63650    0.30610    1.000
    C60      C        0.06337    0.49970    0.44780    1.000
    H53      H        0.04640    0.57100    0.43040    1.000
    H54      H        0.07370    0.51940    0.49380    1.000
    C61      C        0.63801    0.34130    0.34200    1.000
    H55      H        0.65580    0.29670    0.37640    1.000
    H56      H        0.63520    0.28800    0.30220    1.000
    C62      C        0.70308    0.48440    0.33040    1.000
    H57      H        0.72450    0.42920    0.34730    1.000
    C63      C        0.59437    0.36090    0.36690    1.000
    C64      C        0.58292    0.42940    0.42160    1.000
    H58      H        0.60240    0.47420    0.45010    1.000
    C65      C        0.55710    0.30880    0.34330    1.000
    H59      H        0.55350    0.25430    0.30650    1.000
    N21      N        0.54119    0.42510    0.42941    1.000
    N22      N        0.52637    0.34720    0.38040    1.000
    H60      H        0.50000    0.32460    0.37380    1.000
    N23      N        0.14254    0.42430    0.32325    1.000
    C66      C        0.10112    0.48430    0.40640    1.000
    N24      N        0.16381    0.50690    0.36538    1.000
    H61      H        0.18950    0.53270    0.36110    1.000
    C67      C        0.14007    0.54350    0.41410    1.000
    H62      H        0.14850    0.60040    0.44830    1.000
    C68      C        0.10455    0.41090    0.34860    1.000
    H63      H        0.08280    0.35880    0.32990    1.000
    O23      O        0.83061    0.51173    0.30748    1.000
    O24      O        0.90015    0.53350    0.33982    1.000
    C69      C        0.86255    0.57750    0.32740    1.000
    Co4      Co       0.17187    0.34107    0.24300    1.000
    O25      O        0.23331    0.35700    0.29204    1.000
    O26      O        0.10976    0.29600    0.19679    1.000
    H64      H        0.09870    0.36000    0.17980    1.000
    O27      O        0.44835    0.46110    0.42656    1.000
    O28      O        0.40421    0.62570    0.40942    1.000
    O29      O        0.24960    0.54620    0.33503    1.000
    C70      C        0.37794    0.42250    0.37738    1.000
    C71      C        0.33683    0.46790    0.36243    1.000
    H65      H        0.33070    0.55230    0.37090    1.000
    N25      N        0.17168    0.15660    0.28483    1.000
    O30      O        0.20576    0.27200    0.15975    1.000
    H66      H        0.21720    0.20430    0.17020    1.000
    N26      N        0.51104    0.68780    0.46654    1.000
    N27      N        0.47940    0.75860    0.43703    1.000
    H67      H        0.45380    0.73150    0.42690    1.000
    C72      C        0.30457    0.38900    0.33485    1.000
    C73      C        0.25917    0.43560    0.31984    1.000
    C74      C        0.35504    0.21370    0.33960    1.000
    C75      C        0.41285    0.51030    0.40685    1.000
    C76      C        0.54460    0.76520    0.47313    1.000
    H68      H        0.57150    0.74160    0.49220    1.000
    C77      C        0.53490    0.88500    0.44839    1.000
    C78      C        0.38708    0.29480    0.36723    1.000
    H69      H        0.41450    0.26380    0.37880    1.000
    C79      C        0.31454    0.26380    0.32232    1.000
    H70      H        0.29350    0.21160    0.30170    1.000
    C80      C        0.49251    0.87720    0.42517    1.000
    H71      H        0.47590    0.94190    0.40500    1.000
    C81      C        0.16008    0.96130    0.32499    1.000
    C82      C        0.14226    0.07140    0.29600    1.000
    H72      H        0.11300    0.08330    0.28570    1.000
    N28      N        0.20877    0.10090    0.30694    1.000
    H73      H        0.23340    0.13650    0.30610    1.000
    C83      C        0.56337    0.99970    0.44780    1.000
    H74      H        0.54640    0.07100    0.43040    1.000
    H75      H        0.57370    0.01940    0.49380    1.000
    C84      C        0.13801    0.84130    0.34200    1.000
    H76      H        0.15580    0.79670    0.37640    1.000
    H77      H        0.13520    0.78800    0.30220    1.000
    C85      C        0.20308    0.98440    0.33040    1.000
    H78      H        0.22450    0.92920    0.34730    1.000
    C86      C        0.09437    0.86090    0.36690    1.000
    C87      C        0.08292    0.92940    0.42160    1.000
    H79      H        0.10240    0.97420    0.45010    1.000
    C88      C        0.05710    0.80880    0.34330    1.000
    H80      H        0.05350    0.75430    0.30650    1.000
    N29      N        0.04119    0.92510    0.42941    1.000
    N30      N        0.02637    0.84720    0.38040    1.000
    H81      H        0.00000    0.82460    0.37380    1.000
    N31      N        0.64254    0.92430    0.32325    1.000
    C89      C        0.60112    0.98430    0.40640    1.000
    N32      N        0.66381    0.00690    0.36538    1.000
    H82      H        0.68950    0.03270    0.36110    1.000
    C90      C        0.64007    0.04350    0.41410    1.000
    H83      H        0.64850    0.10040    0.44830    1.000
    C91      C        0.60455    0.91090    0.34860    1.000
    H84      H        0.58280    0.85880    0.32990    1.000
    O31      O        0.33061    0.01173    0.30748    1.000
    O32      O        0.40015    0.03350    0.33982    1.000
    C92      C        0.36255    0.07750    0.32740    1.000
    Co5      Co       0.67187    0.15893    0.74300    1.000
    O33      O        0.73331    0.14300    0.79204    1.000
    O34      O        0.60976    0.20400    0.69679    1.000
    H85      H        0.59870    0.14000    0.67980    1.000
    O35      O        0.94835    0.03890    0.92656    1.000
    O36      O        0.90421    0.87430    0.90942    1.000
    O37      O        0.74960    0.95380    0.83503    1.000
    C93      C        0.87794    0.07750    0.87738    1.000
    C94      C        0.83683    0.03210    0.86243    1.000
    H86      H        0.83070    0.94770    0.87090    1.000
    N33      N        0.67168    0.34340    0.78483    1.000
    O38      O        0.70576    0.22800    0.65975    1.000
    H87      H        0.71720    0.29570    0.67020    1.000
    N34      N        0.01104    0.81220    0.96654    1.000
    N35      N        0.97940    0.74140    0.93703    1.000
    H88      H        0.95380    0.76850    0.92690    1.000
    C95      C        0.80457    0.11100    0.83485    1.000
    C96      C        0.75917    0.06440    0.81984    1.000
    C97      C        0.85504    0.28630    0.83960    1.000
    C98      C        0.91285    0.98970    0.90685    1.000
    C99      C        0.04460    0.73480    0.97313    1.000
    H89      H        0.07150    0.75840    0.99220    1.000
    C100     C        0.03490    0.61500    0.94839    1.000
    C101     C        0.88708    0.20520    0.86723    1.000
    H90      H        0.91450    0.23620    0.87880    1.000
    C102     C        0.81454    0.23620    0.82232    1.000
    H91      H        0.79350    0.28840    0.80170    1.000
    C103     C        0.99251    0.62280    0.92517    1.000
    H92      H        0.97590    0.55810    0.90500    1.000
    C104     C        0.66008    0.53870    0.82499    1.000
    C105     C        0.64226    0.42860    0.79600    1.000
    H93      H        0.61300    0.41670    0.78570    1.000
    N36      N        0.70877    0.39910    0.80694    1.000
    H94      H        0.73340    0.36350    0.80610    1.000
    C106     C        0.06337    0.50030    0.94780    1.000
    H95      H        0.04640    0.42900    0.93040    1.000
    H96      H        0.07370    0.48060    0.99380    1.000
    C107     C        0.63801    0.65870    0.84200    1.000
    H97      H        0.65580    0.70330    0.87640    1.000
    H98      H        0.63520    0.71200    0.80220    1.000
    C108     C        0.70308    0.51560    0.83040    1.000
    H99      H        0.72450    0.57080    0.84730    1.000
    C109     C        0.59437    0.63910    0.86690    1.000
    C110     C        0.58292    0.57060    0.92160    1.000
    H100     H        0.60240    0.52580    0.95010    1.000
    C111     C        0.55710    0.69120    0.84330    1.000
    H101     H        0.55350    0.74570    0.80650    1.000
    N37      N        0.54119    0.57490    0.92941    1.000
    N38      N        0.52637    0.65280    0.88040    1.000
    H102     H        0.50000    0.67540    0.87380    1.000
    N39      N        0.14254    0.57570    0.82325    1.000
    C112     C        0.10112    0.51570    0.90640    1.000
    N40      N        0.16381    0.49310    0.86538    1.000
    H103     H        0.18950    0.46730    0.86110    1.000
    C113     C        0.14007    0.45650    0.91410    1.000
    H104     H        0.14850    0.39960    0.94830    1.000
    C114     C        0.10455    0.58910    0.84860    1.000
    H105     H        0.08280    0.64120    0.82990    1.000
    O39      O        0.83061    0.48827    0.80748    1.000
    O40      O        0.90015    0.46650    0.83982    1.000
    C115     C        0.86255    0.42250    0.82740    1.000
    Co6      Co       0.17187    0.65893    0.74300    1.000
    O41      O        0.23331    0.64300    0.79204    1.000
    O42      O        0.10976    0.70400    0.69679    1.000
    H106     H        0.09870    0.64000    0.67980    1.000
    O43      O        0.44835    0.53890    0.92656    1.000
    O44      O        0.40421    0.37430    0.90942    1.000
    O45      O        0.24960    0.45380    0.83503    1.000
    C116     C        0.37794    0.57750    0.87738    1.000
    C117     C        0.33683    0.53210    0.86243    1.000
    H107     H        0.33070    0.44770    0.87090    1.000
    N41      N        0.17168    0.84340    0.78483    1.000
    O46      O        0.20576    0.72800    0.65975    1.000
    H108     H        0.21720    0.79570    0.67020    1.000
    N42      N        0.51104    0.31220    0.96654    1.000
    N43      N        0.47940    0.24140    0.93703    1.000
    H109     H        0.45380    0.26850    0.92690    1.000
    C118     C        0.30457    0.61100    0.83485    1.000
    C119     C        0.25917    0.56440    0.81984    1.000
    C120     C        0.35504    0.78630    0.83960    1.000
    C121     C        0.41285    0.48970    0.90685    1.000
    C122     C        0.54460    0.23480    0.97313    1.000
    H110     H        0.57150    0.25840    0.99220    1.000
    C123     C        0.53490    0.11500    0.94839    1.000
    C124     C        0.38708    0.70520    0.86723    1.000
    H111     H        0.41450    0.73620    0.87880    1.000
    C125     C        0.31454    0.73620    0.82232    1.000
    H112     H        0.29350    0.78840    0.80170    1.000
    C126     C        0.49251    0.12280    0.92517    1.000
    H113     H        0.47590    0.05810    0.90500    1.000
    C127     C        0.16008    0.03870    0.82499    1.000
    C128     C        0.14226    0.92860    0.79600    1.000
    H114     H        0.11300    0.91670    0.78570    1.000
    N44      N        0.20877    0.89910    0.80694    1.000
    H115     H        0.23340    0.86350    0.80610    1.000
    C129     C        0.56337    0.00030    0.94780    1.000
    H116     H        0.54640    0.92900    0.93040    1.000
    H117     H        0.57370    0.98060    0.99380    1.000
    C130     C        0.13801    0.15870    0.84200    1.000
    H118     H        0.15580    0.20330    0.87640    1.000
    H119     H        0.13520    0.21200    0.80220    1.000
    C131     C        0.20308    0.01560    0.83040    1.000
    H120     H        0.22450    0.07080    0.84730    1.000
    C132     C        0.09437    0.13910    0.86690    1.000
    C133     C        0.08292    0.07060    0.92160    1.000
    H121     H        0.10240    0.02580    0.95010    1.000
    C134     C        0.05710    0.19120    0.84330    1.000
    H122     H        0.05350    0.24570    0.80650    1.000
    N45      N        0.04119    0.07490    0.92941    1.000
    N46      N        0.02637    0.15280    0.88040    1.000
    H123     H        0.00000    0.17540    0.87380    1.000
    N47      N        0.64254    0.07570    0.82325    1.000
    C135     C        0.60112    0.01570    0.90640    1.000
    N48      N        0.66381    0.99310    0.86538    1.000
    H124     H        0.68950    0.96730    0.86110    1.000
    C136     C        0.64007    0.95650    0.91410    1.000
    H125     H        0.64850    0.89960    0.94830    1.000
    C137     C        0.60455    0.08910    0.84860    1.000
    H126     H        0.58280    0.14120    0.82990    1.000
    O47      O        0.33061    0.98827    0.80748    1.000
    O48      O        0.40015    0.96650    0.83982    1.000
    C138     C        0.36255    0.92250    0.82740    1.000
    Co7      Co       0.32813    0.15893    0.75700    1.000
    O49      O        0.26669    0.14300    0.70796    1.000
    O50      O        0.39024    0.20400    0.80321    1.000
    H127     H        0.40130    0.14000    0.82020    1.000
    O51      O        0.05165    0.03890    0.57344    1.000
    O52      O        0.09579    0.87430    0.59058    1.000
    O53      O        0.25040    0.95380    0.66497    1.000
    C139     C        0.12206    0.07750    0.62262    1.000
    C140     C        0.16317    0.03210    0.63757    1.000
    H128     H        0.16930    0.94770    0.62910    1.000
    N49      N        0.32832    0.34340    0.71517    1.000
    O54      O        0.29424    0.22800    0.84025    1.000
    H129     H        0.28280    0.29570    0.82980    1.000
    N50      N        0.98896    0.81220    0.53346    1.000
    N51      N        0.02060    0.74140    0.56297    1.000
    H130     H        0.04620    0.76850    0.57310    1.000
    C141     C        0.19543    0.11100    0.66515    1.000
    C142     C        0.24083    0.06440    0.68016    1.000
    C143     C        0.14496    0.28630    0.66040    1.000
    C144     C        0.08715    0.98970    0.59315    1.000
    C145     C        0.95540    0.73480    0.52687    1.000
    H131     H        0.92850    0.75840    0.50780    1.000
    C146     C        0.96510    0.61500    0.55161    1.000
    C147     C        0.11292    0.20520    0.63277    1.000
    H132     H        0.08550    0.23620    0.62120    1.000
    C148     C        0.18546    0.23620    0.67768    1.000
    H133     H        0.20650    0.28840    0.69830    1.000
    C149     C        0.00749    0.62280    0.57483    1.000
    H134     H        0.02410    0.55810    0.59500    1.000
    C150     C        0.33992    0.53870    0.67501    1.000
    C151     C        0.35774    0.42860    0.70400    1.000
    H135     H        0.38700    0.41670    0.71430    1.000
    N52      N        0.29123    0.39910    0.69306    1.000
    H136     H        0.26660    0.36350    0.69390    1.000
    C152     C        0.93663    0.50030    0.55220    1.000
    H137     H        0.95360    0.42900    0.56960    1.000
    H138     H        0.92630    0.48060    0.50620    1.000
    C153     C        0.36199    0.65870    0.65800    1.000
    H139     H        0.34420    0.70330    0.62360    1.000
    H140     H        0.36480    0.71200    0.69780    1.000
    C154     C        0.29692    0.51560    0.66960    1.000
    H141     H        0.27550    0.57080    0.65270    1.000
    C155     C        0.40563    0.63910    0.63310    1.000
    C156     C        0.41708    0.57060    0.57840    1.000
    H142     H        0.39760    0.52580    0.54990    1.000
    C157     C        0.44290    0.69120    0.65670    1.000
    H143     H        0.44650    0.74570    0.69350    1.000
    N53      N        0.45881    0.57490    0.57059    1.000
    N54      N        0.47363    0.65280    0.61960    1.000
    H144     H        0.50000    0.67540    0.62620    1.000
    N55      N        0.85746    0.57570    0.67675    1.000
    C158     C        0.89888    0.51570    0.59360    1.000
    N56      N        0.83619    0.49310    0.63462    1.000
    H145     H        0.81050    0.46730    0.63890    1.000
    C159     C        0.85993    0.45650    0.58590    1.000
    H146     H        0.85150    0.39960    0.55170    1.000
    C160     C        0.89545    0.58910    0.65140    1.000
    H147     H        0.91720    0.64120    0.67010    1.000
    O55      O        0.16939    0.48827    0.69252    1.000
    O56      O        0.09985    0.46650    0.66018    1.000
    C161     C        0.13745    0.42250    0.67260    1.000
    Co8      Co       0.82813    0.65893    0.75700    1.000
    O57      O        0.76669    0.64300    0.70796    1.000
    O58      O        0.89024    0.70400    0.80321    1.000
    H148     H        0.90130    0.64000    0.82020    1.000
    O59      O        0.55165    0.53890    0.57344    1.000
    O60      O        0.59579    0.37430    0.59058    1.000
    O61      O        0.75040    0.45380    0.66497    1.000
    C162     C        0.62206    0.57750    0.62262    1.000
    C163     C        0.66317    0.53210    0.63757    1.000
    H149     H        0.66930    0.44770    0.62910    1.000
    N57      N        0.82832    0.84340    0.71517    1.000
    O62      O        0.79424    0.72800    0.84025    1.000
    H150     H        0.78280    0.79570    0.82980    1.000
    N58      N        0.48896    0.31220    0.53346    1.000
    N59      N        0.52060    0.24140    0.56297    1.000
    H151     H        0.54620    0.26850    0.57310    1.000
    C164     C        0.69543    0.61100    0.66515    1.000
    C165     C        0.74083    0.56440    0.68016    1.000
    C166     C        0.64496    0.78630    0.66040    1.000
    C167     C        0.58715    0.48970    0.59315    1.000
    C168     C        0.45540    0.23480    0.52687    1.000
    H152     H        0.42850    0.25840    0.50780    1.000
    C169     C        0.46510    0.11500    0.55161    1.000
    C170     C        0.61292    0.70520    0.63277    1.000
    H153     H        0.58550    0.73620    0.62120    1.000
    C171     C        0.68546    0.73620    0.67768    1.000
    H154     H        0.70650    0.78840    0.69830    1.000
    C172     C        0.50749    0.12280    0.57483    1.000
    H155     H        0.52410    0.05810    0.59500    1.000
    C173     C        0.83992    0.03870    0.67501    1.000
    C174     C        0.85774    0.92860    0.70400    1.000
    H156     H        0.88700    0.91670    0.71430    1.000
    N60      N        0.79123    0.89910    0.69306    1.000
    H157     H        0.76660    0.86350    0.69390    1.000
    C175     C        0.43663    0.00030    0.55220    1.000
    H158     H        0.45360    0.92900    0.56960    1.000
    H159     H        0.42630    0.98060    0.50620    1.000
    C176     C        0.86199    0.15870    0.65800    1.000
    H160     H        0.84420    0.20330    0.62360    1.000
    H161     H        0.86480    0.21200    0.69780    1.000
    C177     C        0.79692    0.01560    0.66960    1.000
    H162     H        0.77550    0.07080    0.65270    1.000
    C178     C        0.90563    0.13910    0.63310    1.000
    C179     C        0.91708    0.07060    0.57840    1.000
    H163     H        0.89760    0.02580    0.54990    1.000
    C180     C        0.94290    0.19120    0.65670    1.000
    H164     H        0.94650    0.24570    0.69350    1.000
    N61      N        0.95881    0.07490    0.57059    1.000
    N62      N        0.97363    0.15280    0.61960    1.000
    H165     H        0.00000    0.17540    0.62620    1.000
    N63      N        0.35746    0.07570    0.67675    1.000
    C181     C        0.39888    0.01570    0.59360    1.000
    N64      N        0.33619    0.99310    0.63462    1.000
    H166     H        0.31050    0.96730    0.63890    1.000
    C182     C        0.35993    0.95650    0.58590    1.000
    H167     H        0.35150    0.89960    0.55170    1.000
    C183     C        0.39545    0.08910    0.65140    1.000
    H168     H        0.41720    0.14120    0.67010    1.000
    O63      O        0.66939    0.98827    0.69252    1.000
    O64      O        0.59985    0.96650    0.66018    1.000
    C184     C        0.63745    0.92250    0.67260    1.000
    Co9      Co       0.00000    0.00000    0.00000    1.000
    Co10     Co       0.50000    0.50000    0.00000    1.000
    Co11     Co       0.00000    0.00000    0.50000    1.000
    Co12     Co       0.50000    0.50000    0.50000    1.000
