# CIF file generated by openbabel 3.1.0, see https://openbabel.org
data_I
_chemical_name_common 'image0'
_cell_length_a 19.329
_cell_length_b 20.088
_cell_length_c 12.12
_cell_angle_alpha 90
_cell_angle_beta 90
_cell_angle_gamma 90
_space_group_name_H-M_alt 'P 1'
_space_group_name_Hall 'P 1'
loop_
    _symmetry_equiv_pos_as_xyz
    x,y,z
loop_
    _atom_site_label
    _atom_site_type_symbol
    _atom_site_fract_x
    _atom_site_fract_y
    _atom_site_fract_z
    _atom_site_occupancy
    C1       C        0.78790    0.10530    0.34490    1.000
    C2       C        0.71100    0.00560    0.38640    1.000
    C3       C        0.79490    0.95910    0.54800    1.000
    H1       H        0.82470    0.94300    0.60200    1.000
    C4       C        0.77270    0.04260    0.40840    1.000
    C5       C        0.81210    0.01740    0.49410    1.000
    C6       C        0.69660    0.94980    0.44350    1.000
    H2       H        0.65640    0.92670    0.42580    1.000
    C7       C        0.97400    0.19330    0.37610    1.000
    H3       H        0.94980    0.15330    0.37110    1.000
    C8       C        0.04490    0.19240    0.38230    1.000
    C9       C        0.35960    0.20200    0.77270    1.000
    C10      C        0.86040    0.29710    0.61590    1.000
    H4       H        0.88520    0.32990    0.57890    1.000
    C11      C        0.29170    0.29590    0.88440    1.000
    H5       H        0.26910    0.32990    0.92190    1.000
    C12      C        0.78790    0.29570    0.72590    1.000
    Co1      Co       0.70744    0.83564    0.61457    1.000
    F1       F        0.87260    0.04500    0.52400    1.000
    F2       F        0.40270    0.15670    0.72530    1.000
    F3       F        0.07510    0.13430    0.39000    1.000
    N1       N        0.73760    0.92530    0.52590    1.000
    O1       O        0.76260    0.10990    0.25230    1.000
    O2       O        0.82730    0.14720    0.39180    1.000
    O3       O        0.81980    0.19460    0.95830    1.000
    O4       O        0.19010    0.19480    0.39710    1.000
    F4       F        0.16500    0.02610    0.18600    1.000
    C13      C        0.71210    0.89470    0.84490    1.000
    C14      C        0.78900    0.99440    0.88640    1.000
    C15      C        0.70510    0.04090    0.04800    1.000
    H6       H        0.67530    0.05700    0.10200    1.000
    C16      C        0.72730    0.95740    0.90840    1.000
    C17      C        0.68790    0.98260    0.99410    1.000
    C18      C        0.80340    0.05020    0.94350    1.000
    H7       H        0.84360    0.07330    0.92580    1.000
    C19      C        0.52600    0.80670    0.87610    1.000
    H8       H        0.55020    0.84670    0.87110    1.000
    C20      C        0.45510    0.80760    0.88230    1.000
    C21      C        0.14040    0.79800    0.27270    1.000
    C22      C        0.63960    0.70290    0.11590    1.000
    H9       H        0.61480    0.67010    0.07890    1.000
    C23      C        0.20830    0.70410    0.38440    1.000
    H10      H        0.23090    0.67010    0.42190    1.000
    C24      C        0.71210    0.70430    0.22590    1.000
    Co2      Co       0.79256    0.16436    0.11457    1.000
    F5       F        0.62740    0.95500    0.02400    1.000
    F6       F        0.09730    0.84330    0.22530    1.000
    F7       F        0.42490    0.86570    0.89000    1.000
    N2       N        0.76240    0.07470    0.02590    1.000
    O5       O        0.73740    0.89010    0.75230    1.000
    O6       O        0.67270    0.85280    0.89180    1.000
    O7       O        0.68020    0.80540    0.45830    1.000
    O8       O        0.30990    0.80520    0.89710    1.000
    F8       F        0.33500    0.97390    0.68600    1.000
    C25      C        0.21210    0.60530    0.65510    1.000
    C26      C        0.28900    0.50560    0.61360    1.000
    C27      C        0.20510    0.45910    0.45200    1.000
    H11      H        0.17530    0.44300    0.39800    1.000
    C28      C        0.22730    0.54260    0.59160    1.000
    C29      C        0.18790    0.51740    0.50590    1.000
    C30      C        0.30340    0.44980    0.55650    1.000
    H12      H        0.34360    0.42670    0.57420    1.000
    C31      C        0.02600    0.69330    0.62390    1.000
    H13      H        0.05020    0.65330    0.62890    1.000
    C32      C        0.95510    0.69240    0.61770    1.000
    C33      C        0.64040    0.70200    0.22730    1.000
    C34      C        0.13960    0.79710    0.38410    1.000
    H14      H        0.11480    0.82990    0.42110    1.000
    C35      C        0.70830    0.79590    0.11560    1.000
    H15      H        0.73090    0.82990    0.07810    1.000
    C36      C        0.21210    0.79570    0.27410    1.000
    Co3      Co       0.29256    0.33564    0.38543    1.000
    F9       F        0.12740    0.54500    0.47600    1.000
    F10      F        0.59730    0.65670    0.27470    1.000
    F11      F        0.92490    0.63430    0.61000    1.000
    N3       N        0.26240    0.42530    0.47410    1.000
    O9       O        0.23740    0.60990    0.74770    1.000
    O10      O        0.17270    0.64720    0.60820    1.000
    O11      O        0.18020    0.69460    0.04170    1.000
    O12      O        0.80990    0.69480    0.60290    1.000
    F12      F        0.83500    0.52610    0.81400    1.000
    C37      C        0.28790    0.39470    0.15510    1.000
    C38      C        0.21100    0.49440    0.11360    1.000
    C39      C        0.29490    0.54090    0.95200    1.000
    H16      H        0.32470    0.55700    0.89800    1.000
    C40      C        0.27270    0.45740    0.09160    1.000
    C41      C        0.31210    0.48260    0.00590    1.000
    C42      C        0.19660    0.55020    0.05650    1.000
    H17      H        0.15640    0.57330    0.07420    1.000
    C43      C        0.47400    0.30670    0.12390    1.000
    H18      H        0.44980    0.34670    0.12890    1.000
    C44      C        0.54490    0.30760    0.11770    1.000
    C45      C        0.85960    0.29800    0.72730    1.000
    C46      C        0.36040    0.20290    0.88410    1.000
    H19      H        0.38520    0.17010    0.92110    1.000
    C47      C        0.79170    0.20410    0.61560    1.000
    H20      H        0.76910    0.17010    0.57810    1.000
    C48      C        0.28790    0.20430    0.77410    1.000
    Co4      Co       0.20744    0.66436    0.88543    1.000
    F13      F        0.37260    0.45500    0.97600    1.000
    F14      F        0.90270    0.34330    0.77470    1.000
    F15      F        0.57510    0.36570    0.11000    1.000
    N4       N        0.23760    0.57470    0.97410    1.000
    O13      O        0.26260    0.39010    0.24770    1.000
    O14      O        0.32730    0.35280    0.10820    1.000
    O15      O        0.31980    0.30540    0.54170    1.000
    O16      O        0.69010    0.30520    0.10290    1.000
    F16      F        0.66500    0.47390    0.31400    1.000
    C49      C        0.21210    0.89470    0.65510    1.000
    C50      C        0.28900    0.99440    0.61360    1.000
    C51      C        0.20510    0.04090    0.45200    1.000
    H21      H        0.17530    0.05700    0.39800    1.000
    C52      C        0.22730    0.95740    0.59160    1.000
    C53      C        0.18790    0.98260    0.50590    1.000
    C54      C        0.30340    0.05020    0.55650    1.000
    H22      H        0.34360    0.07330    0.57420    1.000
    C55      C        0.02600    0.80670    0.62390    1.000
    H23      H        0.05020    0.84670    0.62890    1.000
    C56      C        0.95510    0.80760    0.61770    1.000
    C57      C        0.64040    0.79800    0.22730    1.000
    C58      C        0.13960    0.70290    0.38410    1.000
    H24      H        0.11480    0.67010    0.42110    1.000
    C59      C        0.70830    0.70410    0.11560    1.000
    H25      H        0.73090    0.67010    0.07810    1.000
    C60      C        0.21210    0.70430    0.27410    1.000
    Co5      Co       0.29256    0.16436    0.38543    1.000
    F17      F        0.12740    0.95500    0.47600    1.000
    F18      F        0.59730    0.84330    0.27470    1.000
    F19      F        0.92490    0.86570    0.61000    1.000
    N5       N        0.26240    0.07470    0.47410    1.000
    O17      O        0.23740    0.89010    0.74770    1.000
    O18      O        0.17270    0.85280    0.60820    1.000
    O19      O        0.18020    0.80540    0.04170    1.000
    O20      O        0.80990    0.80520    0.60290    1.000
    F20      F        0.83500    0.97390    0.81400    1.000
    C61      C        0.28790    0.10530    0.15510    1.000
    C62      C        0.21100    0.00560    0.11360    1.000
    C63      C        0.29490    0.95910    0.95200    1.000
    H26      H        0.32470    0.94300    0.89800    1.000
    C64      C        0.27270    0.04260    0.09160    1.000
    C65      C        0.31210    0.01740    0.00590    1.000
    C66      C        0.19660    0.94980    0.05650    1.000
    H27      H        0.15640    0.92670    0.07420    1.000
    C67      C        0.47400    0.19330    0.12390    1.000
    H28      H        0.44980    0.15330    0.12890    1.000
    C68      C        0.54490    0.19240    0.11770    1.000
    C69      C        0.85960    0.20200    0.72730    1.000
    C70      C        0.36040    0.29710    0.88410    1.000
    H29      H        0.38520    0.32990    0.92110    1.000
    C71      C        0.79170    0.29590    0.61560    1.000
    H30      H        0.76910    0.32990    0.57810    1.000
    C72      C        0.28790    0.29570    0.77410    1.000
    Co6      Co       0.20744    0.83564    0.88543    1.000
    F21      F        0.37260    0.04500    0.97600    1.000
    F22      F        0.90270    0.15670    0.77470    1.000
    F23      F        0.57510    0.13430    0.11000    1.000
    N6       N        0.23760    0.92530    0.97410    1.000
    O21      O        0.26260    0.10990    0.24770    1.000
    O22      O        0.32730    0.14720    0.10820    1.000
    O23      O        0.31980    0.19460    0.54170    1.000
    O24      O        0.69010    0.19480    0.10290    1.000
    F24      F        0.66500    0.02610    0.31400    1.000
    C73      C        0.78790    0.39470    0.34490    1.000
    C74      C        0.71100    0.49440    0.38640    1.000
    C75      C        0.79490    0.54090    0.54800    1.000
    H31      H        0.82470    0.55700    0.60200    1.000
    C76      C        0.77270    0.45740    0.40840    1.000
    C77      C        0.81210    0.48260    0.49410    1.000
    C78      C        0.69660    0.55020    0.44350    1.000
    H32      H        0.65640    0.57330    0.42580    1.000
    C79      C        0.97400    0.30670    0.37610    1.000
    H33      H        0.94980    0.34670    0.37110    1.000
    C80      C        0.04490    0.30760    0.38230    1.000
    C81      C        0.35960    0.29800    0.77270    1.000
    C82      C        0.86040    0.20290    0.61590    1.000
    H34      H        0.88520    0.17010    0.57890    1.000
    C83      C        0.29170    0.20410    0.88440    1.000
    H35      H        0.26910    0.17010    0.92190    1.000
    C84      C        0.78790    0.20430    0.72590    1.000
    Co7      Co       0.70744    0.66436    0.61457    1.000
    F25      F        0.87260    0.45500    0.52400    1.000
    F26      F        0.40270    0.34330    0.72530    1.000
    F27      F        0.07510    0.36570    0.39000    1.000
    N7       N        0.73760    0.57470    0.52590    1.000
    O25      O        0.76260    0.39010    0.25230    1.000
    O26      O        0.82730    0.35280    0.39180    1.000
    O27      O        0.81980    0.30540    0.95830    1.000
    O28      O        0.19010    0.30520    0.39710    1.000
    F28      F        0.16500    0.47390    0.18600    1.000
    C85      C        0.71210    0.60530    0.84490    1.000
    C86      C        0.78900    0.50560    0.88640    1.000
    C87      C        0.70510    0.45910    0.04800    1.000
    H36      H        0.67530    0.44300    0.10200    1.000
    C88      C        0.72730    0.54260    0.90840    1.000
    C89      C        0.68790    0.51740    0.99410    1.000
    C90      C        0.80340    0.44980    0.94350    1.000
    H37      H        0.84360    0.42670    0.92580    1.000
    C91      C        0.52600    0.69330    0.87610    1.000
    H38      H        0.55020    0.65330    0.87110    1.000
    C92      C        0.45510    0.69240    0.88230    1.000
    C93      C        0.14040    0.70200    0.27270    1.000
    C94      C        0.63960    0.79710    0.11590    1.000
    H39      H        0.61480    0.82990    0.07890    1.000
    C95      C        0.20830    0.79590    0.38440    1.000
    H40      H        0.23090    0.82990    0.42190    1.000
    C96      C        0.71210    0.79570    0.22590    1.000
    Co8      Co       0.79256    0.33564    0.11457    1.000
    F29      F        0.62740    0.54500    0.02400    1.000
    F30      F        0.09730    0.65670    0.22530    1.000
    F31      F        0.42490    0.63430    0.89000    1.000
    N8       N        0.76240    0.42530    0.02590    1.000
    O29      O        0.73740    0.60990    0.75230    1.000
    O30      O        0.67270    0.64720    0.89180    1.000
    O31      O        0.68020    0.69460    0.45830    1.000
    O32      O        0.30990    0.69480    0.89710    1.000
    F32      F        0.33500    0.52610    0.68600    1.000
    C97      C        0.08220    0.25000    0.38930    1.000
    C98      C        0.82030    0.25000    0.91380    1.000
    C99      C        0.16370    0.25000    0.39450    1.000
    C100     C        0.82410    0.25000    0.78790    1.000
    Co9      Co       0.82688    0.25000    0.37047    1.000
    N9       N        0.82640    0.25000    0.55480    1.000
    N10      N        0.93960    0.25000    0.37700    1.000
    O33      O        0.82580    0.25000    0.19830    1.000
    C101     C        0.41780    0.75000    0.88930    1.000
    C102     C        0.67970    0.75000    0.41380    1.000
    C103     C        0.33630    0.75000    0.89450    1.000
    C104     C        0.67590    0.75000    0.28790    1.000
    Co10     Co       0.67312    0.75000    0.87047    1.000
    N11      N        0.67360    0.75000    0.05480    1.000
    N12      N        0.56040    0.75000    0.87700    1.000
    O34      O        0.67420    0.75000    0.69830    1.000
    C105     C        0.91780    0.75000    0.61070    1.000
    C106     C        0.17970    0.75000    0.08620    1.000
    C107     C        0.83630    0.75000    0.60550    1.000
    C108     C        0.17590    0.75000    0.21210    1.000
    Co11     Co       0.17312    0.75000    0.62953    1.000
    N13      N        0.17360    0.75000    0.44520    1.000
    N14      N        0.06040    0.75000    0.62300    1.000
    O35      O        0.17420    0.75000    0.80170    1.000
    C109     C        0.58220    0.25000    0.11070    1.000
    C110     C        0.32030    0.25000    0.58620    1.000
    C111     C        0.66370    0.25000    0.10550    1.000
    C112     C        0.32410    0.25000    0.71210    1.000
    Co12     Co       0.32688    0.25000    0.12953    1.000
    N15      N        0.32640    0.25000    0.94520    1.000
    N16      N        0.43960    0.25000    0.12300    1.000
    O36      O        0.32580    0.25000    0.30170    1.000
