# CIF file generated by openbabel 3.1.0, see https://openbabel.org
data_I
_chemical_name_common 'VARWES_charged'
_cell_length_a 11.5675
_cell_length_b 20.924
_cell_length_c 23.7993
_cell_angle_alpha 90
_cell_angle_beta 90
_cell_angle_gamma 90
_space_group_name_H-M_alt 'P 1'
_space_group_name_Hall 'P 1'
loop_
    _symmetry_equiv_pos_as_xyz
    x,y,z
loop_
    _atom_site_label
    _atom_site_type_symbol
    _atom_site_fract_x
    _atom_site_fract_y
    _atom_site_fract_z
    _atom_site_occupancy
    Nd1      Nd       0.42159    0.03639    0.73102    1.000
    Nd2      Nd       0.24365    0.12380    0.84952    1.000
    Nd3      Nd       0.08007    0.02635    0.73418    1.000
    Nd4      Nd       0.26569    0.93224    0.84401    1.000
    Nd5      Nd       0.07841    0.96361    0.23102    1.000
    Nd6      Nd       0.25635    0.87620    0.34952    1.000
    Nd7      Nd       0.41993    0.97365    0.23418    1.000
    Nd8      Nd       0.23431    0.06776    0.34401    1.000
    Nd9      Nd       0.57841    0.53639    0.76898    1.000
    Nd10     Nd       0.75635    0.62380    0.65048    1.000
    Nd11     Nd       0.91993    0.52635    0.76582    1.000
    Nd12     Nd       0.73431    0.43224    0.65599    1.000
    Nd13     Nd       0.92159    0.46361    0.26898    1.000
    Nd14     Nd       0.74365    0.37620    0.15048    1.000
    Nd15     Nd       0.58007    0.47365    0.26582    1.000
    Nd16     Nd       0.76569    0.56776    0.15599    1.000
    H1       H        0.35010    0.78300    0.79090    1.000
    H2       H        0.33940    0.73370    0.74810    1.000
    H3       H        0.37940    0.71720    0.80420    1.000
    H4       H        0.90280    0.85260    0.68370    1.000
    H5       H        0.87030    0.78570    0.68810    1.000
    H6       H        0.85060    0.82870    0.73510    1.000
    H7       H        0.58770    0.81790    0.70730    1.000
    H8       H        0.46010    0.80500    0.68860    1.000
    H9       H        0.54760    0.77000    0.79320    1.000
    H10      H        0.36460    0.91700    0.99320    1.000
    H11      H        0.42670    0.94140    0.04170    1.000
    H12      H        0.37070    0.87930    0.04440    1.000
    H13      H        0.06640    0.79200    0.69800    1.000
    H14      H        0.95540    0.75670    0.79940    1.000
    H15      H        0.08370    0.73900    0.78580    1.000
    H16      H        0.18030    0.03740    0.04470    1.000
    H17      H        0.31530    0.04140    0.04490    1.000
    H18      H        0.18890    0.92580    0.03870    1.000
    H19      H        0.26010    0.93020    0.71810    1.000
    H20      H        0.24190    0.13360    0.72600    1.000
    H21      H        0.06850    0.02090    0.85630    1.000
    H22      H        0.44570    0.03340    0.85370    1.000
    H23      H        0.14990    0.21700    0.29090    1.000
    H24      H        0.16060    0.26630    0.24810    1.000
    H25      H        0.12060    0.28280    0.30420    1.000
    H26      H        0.59720    0.14740    0.18370    1.000
    H27      H        0.62970    0.21430    0.18810    1.000
    H28      H        0.64940    0.17130    0.23510    1.000
    H29      H        0.91230    0.18210    0.20730    1.000
    H30      H        0.03990    0.19500    0.18860    1.000
    H31      H        0.95240    0.23000    0.29320    1.000
    H32      H        0.13540    0.08300    0.49320    1.000
    H33      H        0.07330    0.05860    0.54170    1.000
    H34      H        0.12930    0.12070    0.54440    1.000
    H35      H        0.43360    0.20800    0.19800    1.000
    H36      H        0.54460    0.24330    0.29940    1.000
    H37      H        0.41630    0.26100    0.28580    1.000
    H38      H        0.31970    0.96260    0.54470    1.000
    H39      H        0.18470    0.95860    0.54490    1.000
    H40      H        0.31110    0.07420    0.53870    1.000
    H41      H        0.23990    0.06980    0.21810    1.000
    H42      H        0.25810    0.86640    0.22600    1.000
    H43      H        0.43150    0.97910    0.35630    1.000
    H44      H        0.05430    0.96660    0.35370    1.000
    H45      H        0.64990    0.28300    0.70910    1.000
    H46      H        0.66060    0.23370    0.75190    1.000
    H47      H        0.62060    0.21720    0.69580    1.000
    H48      H        0.09720    0.35260    0.81630    1.000
    H49      H        0.12970    0.28570    0.81190    1.000
    H50      H        0.14940    0.32870    0.76490    1.000
    H51      H        0.41230    0.31790    0.79270    1.000
    H52      H        0.53990    0.30500    0.81140    1.000
    H53      H        0.45240    0.27000    0.70680    1.000
    H54      H        0.63540    0.41700    0.50680    1.000
    H55      H        0.57330    0.44140    0.45830    1.000
    H56      H        0.62930    0.37930    0.45560    1.000
    H57      H        0.93360    0.29200    0.80200    1.000
    H58      H        0.04460    0.25670    0.70060    1.000
    H59      H        0.91630    0.23900    0.71420    1.000
    H60      H        0.81970    0.53740    0.45530    1.000
    H61      H        0.68470    0.54140    0.45510    1.000
    H62      H        0.81110    0.42580    0.46130    1.000
    H63      H        0.73990    0.43020    0.78190    1.000
    H64      H        0.75810    0.63360    0.77400    1.000
    H65      H        0.93150    0.52090    0.64370    1.000
    H66      H        0.55430    0.53340    0.64630    1.000
    H67      H        0.85010    0.71700    0.20910    1.000
    H68      H        0.83940    0.76630    0.25190    1.000
    H69      H        0.87940    0.78280    0.19580    1.000
    H70      H        0.40280    0.64740    0.31630    1.000
    H71      H        0.37030    0.71430    0.31190    1.000
    H72      H        0.35060    0.67130    0.26490    1.000
    H73      H        0.08770    0.68210    0.29270    1.000
    H74      H        0.96010    0.69500    0.31140    1.000
    H75      H        0.04760    0.73000    0.20680    1.000
    H76      H        0.86460    0.58300    0.00680    1.000
    H77      H        0.92670    0.55860    0.95830    1.000
    H78      H        0.87070    0.62070    0.95560    1.000
    H79      H        0.56640    0.70800    0.30200    1.000
    H80      H        0.45540    0.74330    0.20060    1.000
    H81      H        0.58370    0.76100    0.21420    1.000
    H82      H        0.68030    0.46260    0.95530    1.000
    H83      H        0.81530    0.45860    0.95510    1.000
    H84      H        0.68890    0.57420    0.96130    1.000
    H85      H        0.76010    0.56980    0.28190    1.000
    H86      H        0.74190    0.36640    0.27400    1.000
    H87      H        0.56850    0.47910    0.14370    1.000
    H88      H        0.94570    0.46660    0.14630    1.000
    C1       C        0.47220    0.87820    0.74600    1.000
    C2       C        0.50890    0.81400    0.72080    1.000
    C3       C        0.50300    0.75900    0.75960    1.000
    C4       C        0.55160    0.69660    0.73620    1.000
    C5       C        0.06670    0.86320    0.75790    1.000
    C6       C        0.01630    0.80360    0.72960    1.000
    C7       C        0.00820    0.74610    0.76920    1.000
    C8       C        0.96870    0.68490    0.74280    1.000
    C9       C        0.24990    0.02440    0.96660    1.000
    C10      C        0.25000    0.01780    0.03000    1.000
    C11      C        0.25650    0.95000    0.05140    1.000
    C12      C        0.25890    0.95290    0.11540    1.000
    C13      C        0.02780    0.12180    0.24600    1.000
    C14      C        0.99110    0.18600    0.22080    1.000
    C15      C        0.99700    0.24100    0.25960    1.000
    C16      C        0.94840    0.30340    0.23620    1.000
    C17      C        0.43330    0.13680    0.25790    1.000
    C18      C        0.48370    0.19640    0.22960    1.000
    C19      C        0.49180    0.25390    0.26920    1.000
    C20      C        0.53130    0.31510    0.24280    1.000
    C21      C        0.25010    0.97560    0.46660    1.000
    C22      C        0.25000    0.98220    0.53000    1.000
    C23      C        0.24350    0.05000    0.55140    1.000
    C24      C        0.24110    0.04710    0.61540    1.000
    C25      C        0.52780    0.37820    0.75400    1.000
    C26      C        0.49110    0.31400    0.77920    1.000
    C27      C        0.49700    0.25900    0.74040    1.000
    C28      C        0.44840    0.19660    0.76380    1.000
    C29      C        0.93330    0.36320    0.74210    1.000
    C30      C        0.98370    0.30360    0.77040    1.000
    C31      C        0.99180    0.24610    0.73080    1.000
    C32      C        0.03130    0.18490    0.75720    1.000
    C33      C        0.75010    0.52440    0.53340    1.000
    C34      C        0.75000    0.51780    0.47000    1.000
    C35      C        0.74350    0.45000    0.44860    1.000
    C36      C        0.74110    0.45290    0.38460    1.000
    C37      C        0.97220    0.62180    0.25400    1.000
    C38      C        0.00890    0.68600    0.27920    1.000
    C39      C        0.00300    0.74100    0.24040    1.000
    C40      C        0.05160    0.80340    0.26380    1.000
    C41      C        0.56670    0.63680    0.24210    1.000
    C42      C        0.51630    0.69640    0.27040    1.000
    C43      C        0.50820    0.75390    0.23080    1.000
    C44      C        0.46870    0.81510    0.25720    1.000
    C45      C        0.74990    0.47560    0.03340    1.000
    C46      C        0.75000    0.48220    0.97000    1.000
    C47      C        0.75650    0.55000    0.94860    1.000
    C48      C        0.75890    0.54710    0.88460    1.000
    N1       N        0.38050    0.74700    0.77750    1.000
    N2       N        0.89790    0.81930    0.70680    1.000
    N3       N        0.36590    0.91870    0.03060    1.000
    N4       N        0.11950    0.25300    0.27750    1.000
    N5       N        0.60210    0.18070    0.20680    1.000
    N6       N        0.13410    0.08130    0.53060    1.000
    N7       N        0.61950    0.24700    0.72250    1.000
    N8       N        0.10210    0.31930    0.79320    1.000
    N9       N        0.63410    0.41870    0.46940    1.000
    N10      N        0.88050    0.75300    0.22250    1.000
    N11      N        0.39790    0.68070    0.29320    1.000
    N12      N        0.86590    0.58130    0.96940    1.000
    O1       O        0.25750    0.96673    0.74384    1.000
    O2       O        0.24640    0.09530    0.74960    1.000
    O3       O        0.13620    0.02420    0.83176    1.000
    O4       O        0.37610    0.03190    0.83022    1.000
    O5       O        0.50080    0.92740    0.72060    1.000
    O6       O        0.41900    0.87650    0.79180    1.000
    O7       O        0.51090    0.64560    0.75420    1.000
    O8       O        0.63120    0.70240    0.70110    1.000
    O9       O        0.15060    0.85410    0.78910    1.000
    O10      O        0.02140    0.91530    0.74630    1.000
    O11      O        0.99880    0.63380    0.76490    1.000
    O12      O        0.90210    0.68870    0.70110    1.000
    O13      O        0.25500    0.97390    0.93837    1.000
    O14      O        0.24260    0.07990    0.94660    1.000
    O15      O        0.16070    0.95830    0.13850    1.000
    O16      O        0.35420    0.95360    0.13890    1.000
    O17      O        0.61700    0.03290    0.78030    1.000
    O18      O        0.57850    0.05430    0.65630    1.000
    O19      O        0.23320    0.23060    0.89810    1.000
    O20      O        0.43430    0.14370    0.90260    1.000
    O21      O        0.04970    0.13650    0.90150    1.000
    O22      O        0.89630    0.02760    0.79460    1.000
    O23      O        0.91090    0.01410    0.66890    1.000
    O24      O        0.45660    0.91710    0.90400    1.000
    O25      O        0.28820    0.82000    0.88740    1.000
    O26      O        0.07550    0.90380    0.89490    1.000
    O27      O        0.24250    0.03327    0.24384    1.000
    O28      O        0.25360    0.90470    0.24960    1.000
    O29      O        0.36380    0.97580    0.33176    1.000
    O30      O        0.12390    0.96810    0.33022    1.000
    O31      O        0.99920    0.07260    0.22060    1.000
    O32      O        0.08100    0.12350    0.29180    1.000
    O33      O        0.98910    0.35440    0.25420    1.000
    O34      O        0.86880    0.29760    0.20110    1.000
    O35      O        0.34940    0.14590    0.28910    1.000
    O36      O        0.47860    0.08470    0.24630    1.000
    O37      O        0.50120    0.36620    0.26490    1.000
    O38      O        0.59790    0.31130    0.20110    1.000
    O39      O        0.24500    0.02610    0.43837    1.000
    O40      O        0.25740    0.92010    0.44660    1.000
    O41      O        0.33930    0.04170    0.63850    1.000
    O42      O        0.14580    0.04640    0.63890    1.000
    O43      O        0.88300    0.96710    0.28030    1.000
    O44      O        0.92150    0.94570    0.15630    1.000
    O45      O        0.26680    0.76940    0.39810    1.000
    O46      O        0.06570    0.85630    0.40260    1.000
    O47      O        0.45030    0.86350    0.40150    1.000
    O48      O        0.60370    0.97240    0.29460    1.000
    O49      O        0.58910    0.98590    0.16890    1.000
    O50      O        0.04340    0.08290    0.40400    1.000
    O51      O        0.21180    0.18000    0.38740    1.000
    O52      O        0.42450    0.09620    0.39490    1.000
    O53      O        0.74250    0.46673    0.75616    1.000
    O54      O        0.75360    0.59530    0.75040    1.000
    O55      O        0.86380    0.52420    0.66824    1.000
    O56      O        0.62390    0.53190    0.66978    1.000
    O57      O        0.49920    0.42740    0.77940    1.000
    O58      O        0.58100    0.37650    0.70820    1.000
    O59      O        0.48910    0.14560    0.74580    1.000
    O60      O        0.36880    0.20240    0.79890    1.000
    O61      O        0.84940    0.35410    0.71090    1.000
    O62      O        0.97860    0.41530    0.75370    1.000
    O63      O        0.00120    0.13380    0.73510    1.000
    O64      O        0.09790    0.18870    0.79890    1.000
    O65      O        0.74500    0.47390    0.56163    1.000
    O66      O        0.75740    0.57990    0.55340    1.000
    O67      O        0.83930    0.45830    0.36150    1.000
    O68      O        0.64580    0.45360    0.36110    1.000
    O69      O        0.38300    0.53290    0.71970    1.000
    O70      O        0.42150    0.55430    0.84370    1.000
    O71      O        0.76680    0.73060    0.60190    1.000
    O72      O        0.56570    0.64370    0.59740    1.000
    O73      O        0.95030    0.63650    0.59850    1.000
    O74      O        0.10370    0.52760    0.70540    1.000
    O75      O        0.08910    0.51410    0.83110    1.000
    O76      O        0.54340    0.41710    0.59600    1.000
    O77      O        0.71180    0.32000    0.61260    1.000
    O78      O        0.92450    0.40380    0.60510    1.000
    O79      O        0.75750    0.53327    0.25616    1.000
    O80      O        0.74640    0.40470    0.25040    1.000
    O81      O        0.63620    0.47580    0.16824    1.000
    O82      O        0.87610    0.46810    0.16978    1.000
    O83      O        0.00080    0.57260    0.27940    1.000
    O84      O        0.91900    0.62350    0.20820    1.000
    O85      O        0.01090    0.85440    0.24580    1.000
    O86      O        0.13120    0.79760    0.29890    1.000
    O87      O        0.65060    0.64590    0.21090    1.000
    O88      O        0.52140    0.58470    0.25370    1.000
    O89      O        0.49880    0.86620    0.23510    1.000
    O90      O        0.40210    0.81130    0.29890    1.000
    O91      O        0.75500    0.52610    0.06163    1.000
    O92      O        0.74260    0.42010    0.05340    1.000
    O93      O        0.66070    0.54170    0.86150    1.000
    O94      O        0.85420    0.54640    0.86110    1.000
    O95      O        0.11700    0.46710    0.21970    1.000
    O96      O        0.07850    0.44570    0.34370    1.000
    O97      O        0.73320    0.26940    0.10190    1.000
    O98      O        0.93430    0.35630    0.09740    1.000
    O99      O        0.54970    0.36350    0.09850    1.000
    O100     O        0.39630    0.47240    0.20540    1.000
    O101     O        0.41090    0.48590    0.33110    1.000
    O102     O        0.95660    0.58290    0.09600    1.000
    O103     O        0.78820    0.68000    0.11260    1.000
    O104     O        0.57550    0.59620    0.10510    1.000
    Cl1      Cl       0.48770    0.21219    0.55021    1.000
    O105     O        0.51220    0.18730    0.60280    1.000
    O106     O        0.51470    0.27730    0.54870    1.000
    O107     O        0.36900    0.20350    0.54310    1.000
    O108     O        0.54230    0.18420    0.50390    1.000
    Cl2      Cl       0.74650    0.18246    0.86082    1.000
    O109     O        0.74870    0.11600    0.85650    1.000
    O110     O        0.78610    0.20440    0.80890    1.000
    O111     O        0.78900    0.19430    0.91470    1.000
    O112     O        0.63990    0.21040    0.86850    1.000
    Cl3      Cl       0.75390    0.87035    0.84525    1.000
    O113     O        0.74670    0.93650    0.85210    1.000
    O114     O        0.86120    0.84670    0.85990    1.000
    O115     O        0.72520    0.85160    0.79070    1.000
    O116     O        0.66590    0.84430    0.87860    1.000
    Cl4      Cl       0.90590    0.01404    0.99725    1.000
    O117     O        0.98500    0.96360    0.00650    1.000
    O118     O        0.98400    0.06460    0.98670    1.000
    O119     O        0.84600    0.01840    0.04940    1.000
    O120     O        0.80600    0.00530    0.96380    1.000
    Cl5      Cl       0.96860    0.85340    0.55268    1.000
    O121     O        0.01280    0.87420    0.60490    1.000
    O122     O        0.00920    0.89840    0.51240    1.000
    O123     O        0.92400    0.79890    0.52500    1.000
    O124     O        0.85630    0.87990    0.56030    1.000
    Cl6      Cl       0.01230    0.78781    0.05021    1.000
    O125     O        0.98780    0.81270    0.10280    1.000
    O126     O        0.98530    0.72270    0.04870    1.000
    O127     O        0.13100    0.79650    0.04310    1.000
    O128     O        0.95770    0.81580    0.00390    1.000
    Cl7      Cl       0.75350    0.81754    0.36082    1.000
    O129     O        0.75130    0.88400    0.35650    1.000
    O130     O        0.71390    0.79560    0.30890    1.000
    O131     O        0.71100    0.80570    0.41470    1.000
    O132     O        0.86010    0.78960    0.36850    1.000
    Cl8      Cl       0.74610    0.12965    0.34525    1.000
    O133     O        0.75330    0.06350    0.35210    1.000
    O134     O        0.63880    0.15330    0.35990    1.000
    O135     O        0.77480    0.14840    0.29070    1.000
    O136     O        0.83410    0.15570    0.37860    1.000
    Cl9      Cl       0.59410    0.98596    0.49725    1.000
    O137     O        0.51500    0.03640    0.50650    1.000
    O138     O        0.51600    0.93540    0.48670    1.000
    O139     O        0.65400    0.98160    0.54940    1.000
    O140     O        0.69400    0.99470    0.46380    1.000
    Cl10     Cl       0.53140    0.14660    0.05268    1.000
    O141     O        0.48720    0.12580    0.10490    1.000
    O142     O        0.49080    0.10160    0.01240    1.000
    O143     O        0.57600    0.20110    0.02500    1.000
    O144     O        0.64370    0.12010    0.06030    1.000
    Cl11     Cl       0.51230    0.71219    0.94979    1.000
    O145     O        0.48780    0.68730    0.89720    1.000
    O146     O        0.48530    0.77730    0.95130    1.000
    O147     O        0.63100    0.70350    0.95690    1.000
    O148     O        0.45770    0.68420    0.99610    1.000
    Cl12     Cl       0.25350    0.68246    0.63918    1.000
    O149     O        0.25130    0.61600    0.64350    1.000
    O150     O        0.21390    0.70440    0.69110    1.000
    O151     O        0.21100    0.69430    0.58530    1.000
    O152     O        0.36010    0.71040    0.63150    1.000
    Cl13     Cl       0.24610    0.37035    0.65475    1.000
    O153     O        0.25330    0.43650    0.64790    1.000
    O154     O        0.13880    0.34670    0.64010    1.000
    O155     O        0.27480    0.35160    0.70930    1.000
    O156     O        0.33410    0.34430    0.62140    1.000
    Cl14     Cl       0.09410    0.51404    0.50275    1.000
    O157     O        0.01500    0.46360    0.49350    1.000
    O158     O        0.01600    0.56460    0.51330    1.000
    O159     O        0.15400    0.51840    0.45060    1.000
    O160     O        0.19400    0.50530    0.53620    1.000
    Cl15     Cl       0.03140    0.35340    0.94732    1.000
    O161     O        0.98720    0.37420    0.89510    1.000
    O162     O        0.99080    0.39840    0.98760    1.000
    O163     O        0.07600    0.29890    0.97500    1.000
    O164     O        0.14370    0.37990    0.93970    1.000
    Cl16     Cl       0.98770    0.28781    0.44979    1.000
    O165     O        0.01220    0.31270    0.39720    1.000
    O166     O        0.01470    0.22270    0.45130    1.000
    O167     O        0.86900    0.29650    0.45690    1.000
    O168     O        0.04230    0.31580    0.49610    1.000
    Cl17     Cl       0.24650    0.31754    0.13918    1.000
    O169     O        0.24870    0.38400    0.14350    1.000
    O170     O        0.28610    0.29560    0.19110    1.000
    O171     O        0.28900    0.30570    0.08530    1.000
    O172     O        0.13990    0.28960    0.13150    1.000
    Cl18     Cl       0.25390    0.62965    0.15475    1.000
    O173     O        0.24670    0.56350    0.14790    1.000
    O174     O        0.36120    0.65330    0.14010    1.000
    O175     O        0.22520    0.64840    0.20930    1.000
    O176     O        0.16590    0.65570    0.12140    1.000
    Cl19     Cl       0.40590    0.48596    0.00275    1.000
    O177     O        0.48500    0.53640    0.99350    1.000
    O178     O        0.48400    0.43540    0.01330    1.000
    O179     O        0.34600    0.48160    0.95060    1.000
    O180     O        0.30600    0.49470    0.03620    1.000
    Cl20     Cl       0.46860    0.64660    0.44732    1.000
    O181     O        0.51280    0.62580    0.39510    1.000
    O182     O        0.50920    0.60160    0.48760    1.000
    O183     O        0.42400    0.70110    0.47500    1.000
    O184     O        0.35630    0.62010    0.43970    1.000
