# CIF file generated by openbabel 3.1.0, see https://openbabel.org
data_I
_chemical_name_common 'image0'
_cell_length_a 6.6303
_cell_length_b 16.7973
_cell_length_c 12.7469
_cell_angle_alpha 90
_cell_angle_beta 90
_cell_angle_gamma 90
_space_group_name_H-M_alt 'P 1'
_space_group_name_Hall 'P 1'
loop_
    _symmetry_equiv_pos_as_xyz
    x,y,z
loop_
    _atom_site_label
    _atom_site_type_symbol
    _atom_site_fract_x
    _atom_site_fract_y
    _atom_site_fract_z
    _atom_site_occupancy
    O1       O        0.16793    0.16770    0.84262    1.000
    C1       C        0.80810    0.03515    0.96940    1.000
    O2       O        0.66793    0.66770    0.34262    1.000
    C2       C        0.30810    0.53515    0.46940    1.000
    O3       O        0.83207    0.33230    0.84262    1.000
    C3       C        0.19190    0.46485    0.96940    1.000
    O4       O        0.33207    0.83230    0.34262    1.000
    C4       C        0.69190    0.96485    0.46940    1.000
    O5       O        0.83207    0.66770    0.15738    1.000
    C5       C        0.19190    0.53515    0.03060    1.000
    O6       O        0.33207    0.16770    0.65738    1.000
    C6       C        0.69190    0.03515    0.53060    1.000
    O7       O        0.16793    0.83230    0.15738    1.000
    C7       C        0.80810    0.96485    0.03060    1.000
    O8       O        0.66793    0.33230    0.65738    1.000
    C8       C        0.30810    0.46485    0.53060    1.000
    O9       O        0.83207    0.83230    0.15738    1.000
    C9       C        0.19190    0.96485    0.03060    1.000
    O10      O        0.33207    0.33230    0.65738    1.000
    C10      C        0.69190    0.46485    0.53060    1.000
    O11      O        0.16793    0.66770    0.15738    1.000
    C11      C        0.80810    0.53515    0.03060    1.000
    O12      O        0.66793    0.16770    0.65738    1.000
    C12      C        0.30810    0.03515    0.53060    1.000
    O13      O        0.16793    0.33230    0.84262    1.000
    C13      C        0.80810    0.46485    0.96940    1.000
    O14      O        0.66793    0.83230    0.34262    1.000
    C14      C        0.30810    0.96485    0.46940    1.000
    O15      O        0.83207    0.16770    0.84262    1.000
    C15      C        0.19190    0.03515    0.96940    1.000
    O16      O        0.33207    0.66770    0.34262    1.000
    C16      C        0.69190    0.53515    0.46940    1.000
    Al1      Al       0.25000    0.25000    0.75000    1.000
    Al2      Al       0.75000    0.25000    0.75000    1.000
    Al3      Al       0.75000    0.75000    0.25000    1.000
    Al4      Al       0.25000    0.75000    0.25000    1.000
    O17      O        0.00000    0.25000    0.68610    1.000
    O18      O        0.50000    0.75000    0.18610    1.000
    O19      O        0.00000    0.75000    0.31390    1.000
    O20      O        0.50000    0.25000    0.81390    1.000
    C17      C        0.00000    0.06300    0.94510    1.000
    C18      C        0.00000    0.13775    0.87100    1.000
    C19      C        0.50000    0.56300    0.44510    1.000
    C20      C        0.50000    0.63775    0.37100    1.000
    C21      C        0.00000    0.43700    0.94510    1.000
    C22      C        0.00000    0.36225    0.87100    1.000
    C23      C        0.50000    0.93700    0.44510    1.000
    C24      C        0.50000    0.86225    0.37100    1.000
    C25      C        0.00000    0.56300    0.05490    1.000
    C26      C        0.00000    0.63775    0.12900    1.000
    C27      C        0.50000    0.06300    0.55490    1.000
    C28      C        0.50000    0.13775    0.62900    1.000
    C29      C        0.00000    0.93700    0.05490    1.000
    C30      C        0.00000    0.86225    0.12900    1.000
    C31      C        0.50000    0.43700    0.55490    1.000
    C32      C        0.50000    0.36225    0.62900    1.000
