# CIF file generated by openbabel 3.1.0, see https://openbabel.org
data_I
_chemical_name_common 'cg034025wsi20030214_115651_clean'
_cell_length_a 8.457
_cell_length_b 9.69
_cell_length_c 17.225
_cell_angle_alpha 90
_cell_angle_beta 90
_cell_angle_gamma 112.22
_space_group_name_H-M_alt 'P 1'
_space_group_name_Hall 'P 1'
loop_
    _symmetry_equiv_pos_as_xyz
    x,y,z
loop_
    _atom_site_label
    _atom_site_type_symbol
    _atom_site_fract_x
    _atom_site_fract_y
    _atom_site_fract_z
    _atom_site_occupancy
    Er1      Er       0.34421    0.02392    0.25741    1.000
    Er2      Er       0.65579    0.47608    0.75741    1.000
    Er3      Er       0.34421    0.52392    0.24259    1.000
    Er4      Er       0.65579    0.97608    0.74259    1.000
    H1       H        0.85200    0.15200    0.32100    1.000
    H2       H        0.66070    0.83190    0.58960    1.000
    H3       H        0.16000    0.09500    0.73600    1.000
    H4       H        0.41800    0.07900    0.99200    1.000
    H5       H        0.85200    0.65200    0.17900    1.000
    H6       H        0.66070    0.33190    0.91040    1.000
    H7       H        0.58200    0.92100    0.00800    1.000
    H8       H        0.41800    0.57900    0.50800    1.000
    H9       H        0.14800    0.34800    0.82100    1.000
    H10      H        0.33930    0.16810    0.41040    1.000
    H11      H        0.14800    0.84800    0.67900    1.000
    H12      H        0.84000    0.40500    0.23600    1.000
    H13      H        0.16000    0.59500    0.76400    1.000
    H14      H        0.84000    0.90500    0.26400    1.000
    H15      H        0.58200    0.42100    0.49200    1.000
    H16      H        0.33930    0.66810    0.08960    1.000
    C1       C        0.81350    0.96140    0.28320    1.000
    C2       C        0.18650    0.53860    0.78320    1.000
    C3       C        0.62900    0.86700    0.28620    1.000
    C4       C        0.37100    0.13300    0.71380    1.000
    C5       C        0.18650    0.03860    0.71680    1.000
    C6       C        0.40570    0.02580    0.09840    1.000
    C7       C        0.44380    0.52810    0.48540    1.000
    C8       C        0.12400    0.89720    0.69940    1.000
    C9       C        0.06260    0.19860    0.28930    1.000
    C10      C        0.55620    0.97190    0.98540    1.000
    C11      C        0.44380    0.02810    0.01460    1.000
    C12      C        0.55620    0.47190    0.51460    1.000
    C13      C        0.12400    0.39720    0.80060    1.000
    C14      C        0.87600    0.60280    0.19940    1.000
    C15      C        0.93740    0.30140    0.78930    1.000
    C16      C        0.06260    0.69860    0.21070    1.000
    C17      C        0.93740    0.80140    0.71070    1.000
    C18      C        0.62900    0.36700    0.21380    1.000
    C19      C        0.87600    0.10280    0.30060    1.000
    C20      C        0.59430    0.97420    0.90160    1.000
    C21      C        0.59430    0.47420    0.59840    1.000
    C22      C        0.37100    0.63300    0.78620    1.000
    C23      C        0.81350    0.46140    0.21680    1.000
    C24      C        0.40570    0.52580    0.40160    1.000
    O1       O        0.16560    0.63880    0.23000    1.000
    O2       O        0.58830    0.73200    0.26880    1.000
    O3       O        0.46410    0.95460    0.14530    1.000
    O4       O        0.10510    0.33620    0.29650    1.000
    O5       O        0.46410    0.45460    0.35470    1.000
    O6       O        0.42900    0.66250    0.12190    1.000
    O7       O        0.89490    0.66380    0.70350    1.000
    O8       O        0.89490    0.16380    0.79650    1.000
    O9       O        0.47490    0.07610    0.69470    1.000
    O10      O        0.31230    0.59160    0.37780    1.000
    O11      O        0.41170    0.76800    0.76880    1.000
    O12      O        0.47490    0.57610    0.80530    1.000
    O13      O        0.16560    0.13880    0.27000    1.000
    O14      O        0.57100    0.83750    0.62190    1.000
    O15      O        0.31230    0.09160    0.12220    1.000
    O16      O        0.83440    0.86120    0.73000    1.000
    O17      O        0.57100    0.33750    0.87810    1.000
    O18      O        0.58830    0.23200    0.23120    1.000
    O19      O        0.52510    0.42390    0.19470    1.000
    O20      O        0.42900    0.16250    0.37810    1.000
    O21      O        0.52510    0.92390    0.30530    1.000
    O22      O        0.68770    0.40840    0.62220    1.000
    O23      O        0.68770    0.90840    0.87780    1.000
    O24      O        0.10510    0.83620    0.20350    1.000
    O25      O        0.53590    0.54540    0.64530    1.000
    O26      O        0.83440    0.36120    0.77000    1.000
    O27      O        0.53590    0.04540    0.85470    1.000
    O28      O        0.41170    0.26800    0.73120    1.000
