# CIF file generated by openbabel 3.1.0, see https://openbabel.org
data_I
_chemical_name_common 'image0'
_cell_length_a 12.6417
_cell_length_b 16.3072
_cell_length_c 13.2331
_cell_angle_alpha 90
_cell_angle_beta 116.079
_cell_angle_gamma 90
_space_group_name_H-M_alt 'P 1'
_space_group_name_Hall 'P 1'
loop_
    _symmetry_equiv_pos_as_xyz
    x,y,z
loop_
    _atom_site_label
    _atom_site_type_symbol
    _atom_site_fract_x
    _atom_site_fract_y
    _atom_site_fract_z
    _atom_site_occupancy
    C1       C        0.48330    0.73290    0.42700    1.000
    C2       C        0.47550    0.65730    0.49060    1.000
    H1       H        0.53150    0.61620    0.49180    1.000
    H2       H        0.39700    0.63390    0.45420    1.000
    C3       C        0.50330    0.68360    0.61040    1.000
    H3       H        0.58540    0.69980    0.64840    1.000
    H4       H        0.45600    0.73130    0.60690    1.000
    C4       C        0.55480    0.54080    0.69110    1.000
    C5       C        0.43950    0.60760    0.84490    1.000
    C6       C        0.47450    0.62990    0.95630    1.000
    C7       C        0.40840    0.60120    0.00970    1.000
    H5       H        0.34200    0.56910    0.97020    1.000
    C8       C        0.44150    0.62050    0.12180    1.000
    H6       H        0.39730    0.60130    0.15750    1.000
    C9       C        0.54070    0.66850    0.18070    1.000
    H7       H        0.56280    0.68140    0.25580    1.000
    C10      C        0.60680    0.69710    0.12740    1.000
    H8       H        0.67310    0.72920    0.16680    1.000
    C11      C        0.57370    0.67790    0.01520    1.000
    H9       H        0.61790    0.69700    0.97960    1.000
    C12      C        0.33060    0.81690    0.10610    1.000
    H10      H        0.27660    0.78950    0.12410    1.000
    C13      C        0.32140    0.80840    0.99910    1.000
    H11      H        0.26020    0.77790    0.94560    1.000
    C14      C        0.40410    0.84560    0.97180    1.000
    C15      C        0.49040    0.89200    0.05500    1.000
    H12      H        0.54740    0.91820    0.04010    1.000
    C16      C        0.49260    0.89970    0.15820    1.000
    H13      H        0.55100    0.93180    0.21210    1.000
    C17      C        0.40420    0.83710    0.85810    1.000
    H14      H        0.48080    0.81740    0.86880    1.000
    H15      H        0.34630    0.79630    0.81460    1.000
    C18      C        0.37850    0.91270    0.79510    1.000
    H16      H        0.43300    0.95460    0.84100    1.000
    H17      H        0.29970    0.93030    0.78000    1.000
    C19      C        0.38670    0.90640    0.68380    1.000
    C20      C        0.29810    0.86950    0.59220    1.000
    H18      H        0.23340    0.84730    0.59830    1.000
    C21      C        0.30520    0.86550    0.49120    1.000
    H19      H        0.24470    0.83990    0.43050    1.000
    C22      C        0.48100    0.93400    0.56550    1.000
    H20      H        0.54400    0.95700    0.55700    1.000
    C23      C        0.47970    0.93960    0.66970    1.000
    H21      H        0.54100    0.96550    0.72940    1.000
    C24      C        0.48090    0.61770    0.67980    1.000
    H22      H        0.39820    0.60140    0.63790    1.000
    C25      C        0.48170    0.62680    0.87120    1.000
    C26      C        0.52840    0.64750    0.98780    1.000
    C27      C        0.62390    0.70070    0.03400    1.000
    H23      H        0.66030    0.71920    0.99060    1.000
    C28      C        0.66490    0.72620    0.14510    1.000
    H24      H        0.72880    0.76180    0.17600    1.000
    C29      C        0.61050    0.69860    0.21000    1.000
    H25      H        0.63800    0.71560    0.28430    1.000
    C30      C        0.51510    0.64540    0.16380    1.000
    H26      H        0.47870    0.62690    0.20720    1.000
    C31      C        0.47410    0.61990    0.05270    1.000
    H27      H        0.41020    0.58430    0.02180    1.000
    H28      H        0.39690    0.60430    0.64870    1.000
    Cu1      Cu       0.41382    0.87630    0.33575    1.000
    N1       N        0.49550    0.64590    0.78900    1.000
    H29      H        0.54010    0.68740    0.81960    1.000
    N2       N        0.39600    0.89710    0.47700    1.000
    N3       N        0.41330    0.86260    0.18550    1.000
    N4       N        0.52500    0.64950    0.79550    1.000
    H30      H        0.58150    0.68460    0.81750    1.000
    O1       O        0.49810    0.47820    0.63730    1.000
    O2       O        0.66300    0.54380    0.75200    1.000
    O3       O        0.38660    0.75990    0.35090    1.000
    O4       O        0.57880    0.76730    0.45530    1.000
    O5       O        0.35380    0.55680    0.78840    1.000
    O6       O        0.39210    0.57750    0.83000    1.000
    C32      C        0.51670    0.23290    0.57300    1.000
    C33      C        0.52450    0.15730    0.50940    1.000
    H31      H        0.46850    0.11620    0.50820    1.000
    H32      H        0.60300    0.13390    0.54580    1.000
    C34      C        0.49670    0.18360    0.38960    1.000
    H33      H        0.41460    0.19980    0.35160    1.000
    H34      H        0.54400    0.23130    0.39310    1.000
    C35      C        0.44520    0.04080    0.30890    1.000
    C36      C        0.56050    0.10760    0.15510    1.000
    C37      C        0.52550    0.12990    0.04370    1.000
    C38      C        0.59160    0.10120    0.99030    1.000
    H35      H        0.65800    0.06910    0.02980    1.000
    C39      C        0.55850    0.12050    0.87820    1.000
    H36      H        0.60270    0.10130    0.84250    1.000
    C40      C        0.45930    0.16850    0.81930    1.000
    H37      H        0.43720    0.18140    0.74420    1.000
    C41      C        0.39320    0.19710    0.87260    1.000
    H38      H        0.32690    0.22920    0.83320    1.000
    C42      C        0.42630    0.17790    0.98480    1.000
    H39      H        0.38210    0.19700    0.02040    1.000
    C43      C        0.66940    0.31690    0.89390    1.000
    H40      H        0.72340    0.28950    0.87590    1.000
    C44      C        0.67860    0.30840    0.00090    1.000
    H41      H        0.73980    0.27790    0.05440    1.000
    C45      C        0.59590    0.34560    0.02820    1.000
    C46      C        0.50960    0.39200    0.94500    1.000
    H42      H        0.45260    0.41820    0.95990    1.000
    C47      C        0.50740    0.39970    0.84180    1.000
    H43      H        0.44900    0.43180    0.78790    1.000
    C48      C        0.59580    0.33710    0.14190    1.000
    H44      H        0.51920    0.31740    0.13120    1.000
    H45      H        0.65370    0.29630    0.18540    1.000
    C49      C        0.62150    0.41270    0.20490    1.000
    H46      H        0.56700    0.45460    0.15900    1.000
    H47      H        0.70030    0.43030    0.22000    1.000
    C50      C        0.61330    0.40640    0.31620    1.000
    C51      C        0.70190    0.36950    0.40780    1.000
    H48      H        0.76660    0.34730    0.40170    1.000
    C52      C        0.69480    0.36550    0.50880    1.000
    H49      H        0.75530    0.33990    0.56950    1.000
    C53      C        0.51900    0.43400    0.43450    1.000
    H50      H        0.45600    0.45700    0.44300    1.000
    C54      C        0.52030    0.43960    0.33030    1.000
    H51      H        0.45900    0.46550    0.27060    1.000
    C55      C        0.51910    0.11770    0.32020    1.000
    H52      H        0.60180    0.10140    0.36210    1.000
    C56      C        0.51830    0.12680    0.12880    1.000
    C57      C        0.47160    0.14750    0.01220    1.000
    C58      C        0.37610    0.20070    0.96600    1.000
    H53      H        0.33970    0.21920    0.00940    1.000
    C59      C        0.33510    0.22620    0.85490    1.000
    H54      H        0.27120    0.26180    0.82400    1.000
    C60      C        0.38950    0.19860    0.79000    1.000
    H55      H        0.36200    0.21560    0.71570    1.000
    C61      C        0.48490    0.14540    0.83620    1.000
    H56      H        0.52130    0.12690    0.79280    1.000
    C62      C        0.52590    0.11990    0.94730    1.000
    H57      H        0.58980    0.08430    0.97820    1.000
    H58      H        0.60310    0.10430    0.35130    1.000
    Cu2      Cu       0.58618    0.37630    0.66425    1.000
    N5       N        0.50450    0.14590    0.21100    1.000
    H59      H        0.45990    0.18740    0.18040    1.000
    N6       N        0.60400    0.39710    0.52300    1.000
    N7       N        0.58670    0.36260    0.81450    1.000
    N8       N        0.47500    0.14950    0.20450    1.000
    H60      H        0.41850    0.18460    0.18250    1.000
    O7       O        0.50190    0.97820    0.36270    1.000
    O8       O        0.33700    0.04380    0.24800    1.000
    O9       O        0.61340    0.25990    0.64910    1.000
    O10      O        0.42120    0.26730    0.54470    1.000
    O11      O        0.64620    0.05680    0.21160    1.000
    O12      O        0.60790    0.07750    0.17000    1.000
    C63      C        0.99280    0.12750    0.05260    1.000
    C64      C        0.94730    0.20030    0.97550    1.000
    H61      H        0.97810    0.25030    0.01820    1.000
    H62      H        0.86210    0.20200    0.94440    1.000
    C65      C        0.98430    0.19590    0.87840    1.000
    H63      H        0.06710    0.21000    0.90720    1.000
    H64      H        0.97440    0.14020    0.85010    1.000
    C66      C        0.91090    0.25460    0.78070    1.000
    H65      H        0.82780    0.23870    0.74990    1.000
    C67      C        0.92320    0.34470    0.81980    1.000
    C68      C        0.89850    0.19900    0.60360    1.000
    C69      C        0.92710    0.21080    0.50560    1.000
    C70      C        0.01290    0.26570    0.50730    1.000
    H66      H        0.05670    0.29640    0.57150    1.000
    C71      C        0.03190    0.27380    0.41240    1.000
    H67      H        0.08940    0.30980    0.41330    1.000
    C72      C        0.96610    0.22910    0.31610    1.000
    H68      H        0.97980    0.23510    0.25300    1.000
    C73      C        0.88210    0.17660    0.31340    1.000
    H69      H        0.83730    0.14740    0.24800    1.000
    C74      C        0.86250    0.16610    0.40790    1.000
    H70      H        0.80580    0.12890    0.40600    1.000
    C75      C        0.79770    0.58420    0.61370    1.000
    H71      H        0.74650    0.61470    0.63220    1.000
    C76      C        0.79410    0.59460    0.50970    1.000
    H72      H        0.74110    0.63150    0.45920    1.000
    C77      C        0.86940    0.55000    0.47910    1.000
    C78      C        0.95030    0.49930    0.55930    1.000
    H73      H        0.00460    0.47010    0.54360    1.000
    C79      C        0.94990    0.49230    0.66360    1.000
    H74      H        0.00610    0.45880    0.71730    1.000
    C80      C        0.85570    0.55640    0.35910    1.000
    H75      H        0.77320    0.54930    0.30750    1.000
    H76      H        0.87840    0.61120    0.34770    1.000
    C81      C        0.92750    0.49470    0.32980    1.000
    H77      H        0.01040    0.50710    0.37420    1.000
    H78      H        0.91330    0.44060    0.35170    1.000
    C82      C        0.90270    0.49200    0.20730    1.000
    C83      C        0.80910    0.53180    0.12300    1.000
    H79      H        0.75670    0.56210    0.14000    1.000
    C84      C        0.79380    0.52640    0.01400    1.000
    H80      H        0.72940    0.55310    0.95850    1.000
    C85      C        0.95560    0.44450    0.06440    1.000
    H81      H        0.00640    0.41430    0.04490    1.000
    C86      C        0.97550    0.44560    0.17460    1.000
    H82      H        0.03750    0.41550    0.22780    1.000
    Cu3      Cu       0.86076    0.50545    0.83164    1.000
    N9       N        0.94780    0.25200    0.69120    1.000
    H83      H        0.00210    0.28490    0.69370    1.000
    N10      N        0.87290    0.53120    0.69120    1.000
    N11      N        0.86600    0.48500    0.98250    1.000
    O13      O        0.82770    0.14620    0.60070    1.000
    O14      O        0.82790    0.38730    0.78500    1.000
    O15      O        0.02280    0.37160    0.87740    1.000
    O16      O        0.10140    0.12230    0.11550    1.000
    O17      O        0.92320    0.07360    0.05030    1.000
    C87      C        0.00720    0.62750    0.94740    1.000
    C88      C        0.05270    0.70030    0.02450    1.000
    H84      H        0.02190    0.75030    0.98180    1.000
    H85      H        0.13790    0.70200    0.05560    1.000
    C89      C        0.01570    0.69590    0.12160    1.000
    H86      H        0.93290    0.71000    0.09280    1.000
    H87      H        0.02560    0.64020    0.14990    1.000
    C90      C        0.08910    0.75460    0.21930    1.000
    H88      H        0.17220    0.73870    0.25010    1.000
    C91      C        0.07680    0.84470    0.18020    1.000
    C92      C        0.10150    0.69900    0.39640    1.000
    C93      C        0.07290    0.71080    0.49440    1.000
    C94      C        0.98710    0.76570    0.49270    1.000
    H89      H        0.94330    0.79640    0.42850    1.000
    C95      C        0.96810    0.77380    0.58760    1.000
    H90      H        0.91060    0.80980    0.58670    1.000
    C96      C        0.03390    0.72910    0.68390    1.000
    H91      H        0.02020    0.73510    0.74700    1.000
    C97      C        0.11790    0.67660    0.68660    1.000
    H92      H        0.16270    0.64740    0.75200    1.000
    C98      C        0.13750    0.66610    0.59210    1.000
    H93      H        0.19420    0.62890    0.59400    1.000
    C99      C        0.20230    0.08420    0.38630    1.000
    H94      H        0.25350    0.11470    0.36780    1.000
    C100     C        0.20590    0.09460    0.49030    1.000
    H95      H        0.25890    0.13150    0.54080    1.000
    C101     C        0.13060    0.05000    0.52090    1.000
    C102     C        0.04970    0.99930    0.44070    1.000
    H96      H        0.99540    0.97010    0.45640    1.000
    C103     C        0.05010    0.99230    0.33640    1.000
    H97      H        0.99390    0.95880    0.28270    1.000
    C104     C        0.14430    0.05640    0.64090    1.000
    H98      H        0.22680    0.04930    0.69250    1.000
    H99      H        0.12160    0.11120    0.65230    1.000
    C105     C        0.07250    0.99470    0.67020    1.000
    H100     H        0.98960    0.00710    0.62580    1.000
    H101     H        0.08670    0.94060    0.64830    1.000
    C106     C        0.09730    0.99200    0.79270    1.000
    C107     C        0.19090    0.03180    0.87700    1.000
    H102     H        0.24330    0.06210    0.86000    1.000
    C108     C        0.20620    0.02640    0.98600    1.000
    H103     H        0.27060    0.05310    0.04150    1.000
    C109     C        0.04440    0.94450    0.93560    1.000
    H104     H        0.99360    0.91430    0.95510    1.000
    C110     C        0.02450    0.94560    0.82540    1.000
    H105     H        0.96250    0.91550    0.77220    1.000
    Cu4      Cu       0.13924    0.00545    0.16836    1.000
    N12      N        0.05220    0.75200    0.30880    1.000
    H106     H        0.99790    0.78490    0.30630    1.000
    N13      N        0.12710    0.03120    0.30880    1.000
    N14      N        0.13400    0.98500    0.01750    1.000
    O18      O        0.17230    0.64620    0.39930    1.000
    O19      O        0.17210    0.88730    0.21500    1.000
    O20      O        0.97720    0.87160    0.12260    1.000
    O21      O        0.89860    0.62230    0.88450    1.000
    O22      O        0.07680    0.57360    0.94970    1.000
