# CIF file generated by openbabel 3.1.0, see https://openbabel.org
data_I
_chemical_name_common 'image0'
_cell_length_a 9.8536
_cell_length_b 9.8536
_cell_length_c 48.8865
_cell_angle_alpha 90
_cell_angle_beta 90
_cell_angle_gamma 90
_space_group_name_H-M_alt 'P 1'
_space_group_name_Hall 'P 1'
loop_
    _symmetry_equiv_pos_as_xyz
    x,y,z
loop_
    _atom_site_label
    _atom_site_type_symbol
    _atom_site_fract_x
    _atom_site_fract_y
    _atom_site_fract_z
    _atom_site_occupancy
    Cd1      Cd       0.75151    0.80887    0.07767    1.000
    C1       C        0.72130    0.80170    0.16290    1.000
    C2       C        0.70720    0.67730    0.17790    1.000
    H1       H        0.70230    0.59490    0.16860    1.000
    C3       C        0.70080    0.68060    0.20650    1.000
    C4       C        0.70560    0.80540    0.22000    1.000
    H2       H        0.69760    0.80860    0.23890    1.000
    C5       C        0.72240    0.92700    0.20490    1.000
    C6       C        0.73620    0.91980    0.17700    1.000
    H3       H        0.75660    0.99860    0.16740    1.000
    C7       C        0.72990    0.79960    0.13290    1.000
    C8       C        0.69020    0.55320    0.22220    1.000
    C9       C        0.72580    0.05960    0.21960    1.000
    C10      C        0.28320    0.47580    0.04650    1.000
    C11      C        0.39800    0.41300    0.04030    1.000
    H4       H        0.47760    0.46250    0.03790    1.000
    C12      C        0.39800    0.27200    0.03730    1.000
    H5       H        0.47930    0.22600    0.03530    1.000
    C13      C        0.28030    0.20400    0.03730    1.000
    C14      C        0.16420    0.27080    0.04260    1.000
    H6       H        0.08250    0.22380    0.04370    1.000
    C15      C        0.16700    0.40900    0.04620    1.000
    H7       H        0.08610    0.45640    0.04860    1.000
    C16      C        0.28570    0.63160    0.05350    1.000
    H8       H        0.36810    0.65220    0.06350    1.000
    H9       H        0.28730    0.68330    0.03660    1.000
    C17      C        0.15700    0.64700    0.09730    1.000
    H10      H        0.22170    0.60990    0.10890    1.000
    C18      C        0.03090    0.68800    0.10450    1.000
    H11      H        0.99350    0.68310    0.12200    1.000
    C19      C        0.05740    0.72560    0.06140    1.000
    H12      H        0.03980    0.75240    0.04350    1.000
    C20      C        0.27900    0.05000    0.03370    1.000
    H13      H        0.18680    0.01730    0.03530    1.000
    H14      H        0.31190    0.02760    0.01560    1.000
    C21      C        0.33200    0.97700    0.08090    1.000
    H15      H        0.25300    0.00430    0.08970    1.000
    C22      C        0.44700    0.92000    0.09200    1.000
    H16      H        0.45750    0.90440    0.11070    1.000
    C23      C        0.48580    0.93320    0.04990    1.000
    H17      H        0.52830    0.92880    0.03300    1.000
    N1       N        0.96800    0.73800    0.08160    1.000
    N2       N        0.17270    0.67180    0.06920    1.000
    N3       N        0.54330    0.88980    0.07350    1.000
    N4       N        0.36220    0.98260    0.05370    1.000
    O1       O        0.67990    0.70360    0.11925    1.000
    O2       O        0.77950    0.90260    0.12127    1.000
    O3       O        0.68070    0.44090    0.21025    1.000
    O4       O        0.68980    0.55860    0.24830    1.000
    O5       O        0.78350    0.16050    0.20740    1.000
    O6       O        0.66520    0.07740    0.24050    1.000
    Cd2      Cd       0.24849    0.19113    0.57767    1.000
    C24      C        0.27870    0.19830    0.66290    1.000
    C25      C        0.29280    0.32270    0.67790    1.000
    H18      H        0.29770    0.40510    0.66860    1.000
    C26      C        0.29920    0.31940    0.70650    1.000
    C27      C        0.29440    0.19460    0.72000    1.000
    H19      H        0.30240    0.19140    0.73890    1.000
    C28      C        0.27760    0.07300    0.70490    1.000
    C29      C        0.26380    0.08020    0.67700    1.000
    H20      H        0.24340    0.00140    0.66740    1.000
    C30      C        0.27010    0.20040    0.63290    1.000
    C31      C        0.30980    0.44680    0.72220    1.000
    C32      C        0.27420    0.94040    0.71960    1.000
    C33      C        0.71680    0.52420    0.54650    1.000
    C34      C        0.60200    0.58700    0.54030    1.000
    H21      H        0.52240    0.53750    0.53790    1.000
    C35      C        0.60200    0.72800    0.53730    1.000
    H22      H        0.52070    0.77400    0.53530    1.000
    C36      C        0.71970    0.79600    0.53730    1.000
    C37      C        0.83580    0.72920    0.54260    1.000
    H23      H        0.91750    0.77620    0.54370    1.000
    C38      C        0.83300    0.59100    0.54620    1.000
    H24      H        0.91390    0.54360    0.54860    1.000
    C39      C        0.71430    0.36840    0.55350    1.000
    H25      H        0.63190    0.34780    0.56350    1.000
    H26      H        0.71270    0.31670    0.53660    1.000
    C40      C        0.84300    0.35300    0.59730    1.000
    H27      H        0.77830    0.39010    0.60890    1.000
    C41      C        0.96910    0.31200    0.60450    1.000
    H28      H        0.00650    0.31690    0.62200    1.000
    C42      C        0.94260    0.27440    0.56140    1.000
    H29      H        0.96020    0.24760    0.54350    1.000
    C43      C        0.72100    0.95000    0.53370    1.000
    H30      H        0.81320    0.98270    0.53530    1.000
    H31      H        0.68810    0.97240    0.51560    1.000
    C44      C        0.66800    0.02300    0.58090    1.000
    H32      H        0.74700    0.99570    0.58970    1.000
    C45      C        0.55300    0.08000    0.59200    1.000
    H33      H        0.54250    0.09560    0.61070    1.000
    C46      C        0.51420    0.06680    0.54990    1.000
    H34      H        0.47170    0.07120    0.53300    1.000
    N5       N        0.03200    0.26200    0.58160    1.000
    N6       N        0.82730    0.32820    0.56920    1.000
    N7       N        0.45670    0.11020    0.57350    1.000
    N8       N        0.63780    0.01740    0.55370    1.000
    O7       O        0.32010    0.29640    0.61925    1.000
    O8       O        0.22050    0.09740    0.62127    1.000
    O9       O        0.31930    0.55910    0.71025    1.000
    O10      O        0.31020    0.44140    0.74830    1.000
    O11      O        0.21650    0.83950    0.70740    1.000
    O12      O        0.33480    0.92260    0.74050    1.000
    Cd3      Cd       0.69113    0.25151    0.32767    1.000
    C47      C        0.69830    0.22130    0.41290    1.000
    C48      C        0.82270    0.20720    0.42790    1.000
    H35      H        0.90510    0.20230    0.41860    1.000
    C49      C        0.81940    0.20080    0.45650    1.000
    C50      C        0.69460    0.20560    0.47000    1.000
    H36      H        0.69140    0.19760    0.48890    1.000
    C51      C        0.57300    0.22240    0.45490    1.000
    C52      C        0.58020    0.23620    0.42700    1.000
    H37      H        0.50140    0.25660    0.41740    1.000
    C53      C        0.70040    0.22990    0.38290    1.000
    C54      C        0.94680    0.19020    0.47220    1.000
    C55      C        0.44040    0.22580    0.46960    1.000
    C56      C        0.02420    0.78320    0.29650    1.000
    C57      C        0.08700    0.89800    0.29030    1.000
    H38      H        0.03750    0.97760    0.28790    1.000
    C58      C        0.22800    0.89800    0.28730    1.000
    H39      H        0.27400    0.97930    0.28530    1.000
    C59      C        0.29600    0.78030    0.28730    1.000
    C60      C        0.22920    0.66420    0.29260    1.000
    H40      H        0.27620    0.58250    0.29370    1.000
    C61      C        0.09100    0.66700    0.29620    1.000
    H41      H        0.04360    0.58610    0.29860    1.000
    C62      C        0.86840    0.78570    0.30350    1.000
    H42      H        0.84780    0.86810    0.31350    1.000
    H43      H        0.81670    0.78730    0.28660    1.000
    C63      C        0.85300    0.65700    0.34730    1.000
    H44      H        0.89010    0.72170    0.35890    1.000
    C64      C        0.81200    0.53090    0.35450    1.000
    H45      H        0.81690    0.49350    0.37200    1.000
    C65      C        0.77440    0.55740    0.31140    1.000
    H46      H        0.74760    0.53980    0.29350    1.000
    C66      C        0.45000    0.77900    0.28370    1.000
    H47      H        0.48270    0.68680    0.28530    1.000
    H48      H        0.47240    0.81190    0.26560    1.000
    C67      C        0.52300    0.83200    0.33090    1.000
    H49      H        0.49570    0.75300    0.33970    1.000
    C68      C        0.58000    0.94700    0.34200    1.000
    H50      H        0.59560    0.95750    0.36070    1.000
    C69      C        0.56680    0.98580    0.29990    1.000
    H51      H        0.57120    0.02830    0.28300    1.000
    N9       N        0.76200    0.46800    0.33160    1.000
    N10      N        0.82820    0.67270    0.31920    1.000
    N11      N        0.61020    0.04330    0.32350    1.000
    N12      N        0.51740    0.86220    0.30370    1.000
    O13      O        0.79640    0.17990    0.36925    1.000
    O14      O        0.59740    0.27950    0.37127    1.000
    O15      O        0.05910    0.18070    0.46025    1.000
    O16      O        0.94140    0.18980    0.49830    1.000
    O17      O        0.33950    0.28350    0.45740    1.000
    O18      O        0.42260    0.16520    0.49050    1.000
    Cd4      Cd       0.30887    0.74849    0.82767    1.000
    C70      C        0.30170    0.77870    0.91290    1.000
    C71      C        0.17730    0.79280    0.92790    1.000
    H52      H        0.09490    0.79770    0.91860    1.000
    C72      C        0.18060    0.79920    0.95650    1.000
    C73      C        0.30540    0.79440    0.97000    1.000
    H53      H        0.30860    0.80240    0.98890    1.000
    C74      C        0.42700    0.77760    0.95490    1.000
    C75      C        0.41980    0.76380    0.92700    1.000
    H54      H        0.49860    0.74340    0.91740    1.000
    C76      C        0.29960    0.77010    0.88290    1.000
    C77      C        0.05320    0.80980    0.97220    1.000
    C78      C        0.55960    0.77420    0.96960    1.000
    C79      C        0.97580    0.21680    0.79650    1.000
    C80      C        0.91300    0.10200    0.79030    1.000
    H55      H        0.96250    0.02240    0.78790    1.000
    C81      C        0.77200    0.10200    0.78730    1.000
    H56      H        0.72600    0.02070    0.78530    1.000
    C82      C        0.70400    0.21970    0.78730    1.000
    C83      C        0.77080    0.33580    0.79260    1.000
    H57      H        0.72380    0.41750    0.79370    1.000
    C84      C        0.90900    0.33300    0.79620    1.000
    H58      H        0.95640    0.41390    0.79860    1.000
    C85      C        0.13160    0.21430    0.80350    1.000
    H59      H        0.15220    0.13190    0.81350    1.000
    H60      H        0.18330    0.21270    0.78660    1.000
    C86      C        0.14700    0.34300    0.84730    1.000
    H61      H        0.10990    0.27830    0.85890    1.000
    C87      C        0.18800    0.46910    0.85450    1.000
    H62      H        0.18310    0.50650    0.87200    1.000
    C88      C        0.22560    0.44260    0.81140    1.000
    H63      H        0.25240    0.46020    0.79350    1.000
    C89      C        0.55000    0.22100    0.78370    1.000
    H64      H        0.51730    0.31320    0.78530    1.000
    H65      H        0.52760    0.18810    0.76560    1.000
    C90      C        0.47700    0.16800    0.83090    1.000
    H66      H        0.50430    0.24700    0.83970    1.000
    C91      C        0.42000    0.05300    0.84200    1.000
    H67      H        0.40440    0.04250    0.86070    1.000
    C92      C        0.43320    0.01420    0.79990    1.000
    H68      H        0.42880    0.97170    0.78300    1.000
    N13      N        0.23800    0.53200    0.83160    1.000
    N14      N        0.17180    0.32730    0.81920    1.000
    N15      N        0.38980    0.95670    0.82350    1.000
    N16      N        0.48260    0.13780    0.80370    1.000
    O19      O        0.20360    0.82010    0.86925    1.000
    O20      O        0.40260    0.72050    0.87127    1.000
    O21      O        0.94090    0.81930    0.96025    1.000
    O22      O        0.05860    0.81020    0.99830    1.000
    O23      O        0.66050    0.71650    0.95740    1.000
    O24      O        0.57740    0.83480    0.99050    1.000
    Cd5      Cd       0.74849    0.30887    0.17233    1.000
    C93      C        0.77870    0.30170    0.08710    1.000
    C94      C        0.79280    0.17730    0.07210    1.000
    H69      H        0.79770    0.09490    0.08140    1.000
    C95      C        0.79920    0.18060    0.04350    1.000
    C96      C        0.79440    0.30540    0.03000    1.000
    H70      H        0.80240    0.30860    0.01110    1.000
    C97      C        0.77760    0.42700    0.04510    1.000
    C98      C        0.76380    0.41980    0.07300    1.000
    H71      H        0.74340    0.49860    0.08260    1.000
    C99      C        0.77010    0.29960    0.11710    1.000
    C100     C        0.80980    0.05320    0.02780    1.000
    C101     C        0.77420    0.55960    0.03040    1.000
    C102     C        0.21680    0.97580    0.20350    1.000
    C103     C        0.10200    0.91300    0.20970    1.000
    H72      H        0.02240    0.96250    0.21210    1.000
    C104     C        0.10200    0.77200    0.21270    1.000
    H73      H        0.02070    0.72600    0.21470    1.000
    C105     C        0.21970    0.70400    0.21270    1.000
    C106     C        0.33580    0.77080    0.20740    1.000
    H74      H        0.41750    0.72380    0.20630    1.000
    C107     C        0.33300    0.90900    0.20380    1.000
    H75      H        0.41390    0.95640    0.20140    1.000
    C108     C        0.21430    0.13160    0.19650    1.000
    H76      H        0.13190    0.15220    0.18650    1.000
    H77      H        0.21270    0.18330    0.21340    1.000
    C109     C        0.34300    0.14700    0.15270    1.000
    H78      H        0.27830    0.10990    0.14110    1.000
    C110     C        0.46910    0.18800    0.14550    1.000
    H79      H        0.50650    0.18310    0.12800    1.000
    C111     C        0.44260    0.22560    0.18860    1.000
    H80      H        0.46020    0.25240    0.20650    1.000
    C112     C        0.22100    0.55000    0.21630    1.000
    H81      H        0.31320    0.51730    0.21470    1.000
    H82      H        0.18810    0.52760    0.23440    1.000
    C113     C        0.16800    0.47700    0.16910    1.000
    H83      H        0.24700    0.50430    0.16030    1.000
    C114     C        0.05300    0.42000    0.15800    1.000
    H84      H        0.04250    0.40440    0.13930    1.000
    C115     C        0.01420    0.43320    0.20010    1.000
    H85      H        0.97170    0.42880    0.21700    1.000
    N17      N        0.53200    0.23800    0.16840    1.000
    N18      N        0.32730    0.17180    0.18080    1.000
    N19      N        0.95670    0.38980    0.17650    1.000
    N20      N        0.13780    0.48260    0.19630    1.000
    O25      O        0.82010    0.20360    0.13075    1.000
    O26      O        0.72050    0.40260    0.12873    1.000
    O27      O        0.81930    0.94090    0.03975    1.000
    O28      O        0.81020    0.05860    0.00170    1.000
    O29      O        0.71650    0.66050    0.04260    1.000
    O30      O        0.83480    0.57740    0.00950    1.000
    Cd6      Cd       0.25151    0.69113    0.67233    1.000
    C116     C        0.22130    0.69830    0.58710    1.000
    C117     C        0.20720    0.82270    0.57210    1.000
    H86      H        0.20230    0.90510    0.58140    1.000
    C118     C        0.20080    0.81940    0.54350    1.000
    C119     C        0.20560    0.69460    0.53000    1.000
    H87      H        0.19760    0.69140    0.51110    1.000
    C120     C        0.22240    0.57300    0.54510    1.000
    C121     C        0.23620    0.58020    0.57300    1.000
    H88      H        0.25660    0.50140    0.58260    1.000
    C122     C        0.22990    0.70040    0.61710    1.000
    C123     C        0.19020    0.94680    0.52780    1.000
    C124     C        0.22580    0.44040    0.53040    1.000
    C125     C        0.78320    0.02420    0.70350    1.000
    C126     C        0.89800    0.08700    0.70970    1.000
    H89      H        0.97760    0.03750    0.71210    1.000
    C127     C        0.89800    0.22800    0.71270    1.000
    H90      H        0.97930    0.27400    0.71470    1.000
    C128     C        0.78030    0.29600    0.71270    1.000
    C129     C        0.66420    0.22920    0.70740    1.000
    H91      H        0.58250    0.27620    0.70630    1.000
    C130     C        0.66700    0.09100    0.70380    1.000
    H92      H        0.58610    0.04360    0.70140    1.000
    C131     C        0.78570    0.86840    0.69650    1.000
    H93      H        0.86810    0.84780    0.68650    1.000
    H94      H        0.78730    0.81670    0.71340    1.000
    C132     C        0.65700    0.85300    0.65270    1.000
    H95      H        0.72170    0.89010    0.64110    1.000
    C133     C        0.53090    0.81200    0.64550    1.000
    H96      H        0.49350    0.81690    0.62800    1.000
    C134     C        0.55740    0.77440    0.68860    1.000
    H97      H        0.53980    0.74760    0.70650    1.000
    C135     C        0.77900    0.45000    0.71630    1.000
    H98      H        0.68680    0.48270    0.71470    1.000
    H99      H        0.81190    0.47240    0.73440    1.000
    C136     C        0.83200    0.52300    0.66910    1.000
    H100     H        0.75300    0.49570    0.66030    1.000
    C137     C        0.94700    0.58000    0.65800    1.000
    H101     H        0.95750    0.59560    0.63930    1.000
    C138     C        0.98580    0.56680    0.70010    1.000
    H102     H        0.02830    0.57120    0.71700    1.000
    N21      N        0.46800    0.76200    0.66840    1.000
    N22      N        0.67270    0.82820    0.68080    1.000
    N23      N        0.04330    0.61020    0.67650    1.000
    N24      N        0.86220    0.51740    0.69630    1.000
    O31      O        0.17990    0.79640    0.63075    1.000
    O32      O        0.27950    0.59740    0.62873    1.000
    O33      O        0.18070    0.05910    0.53975    1.000
    O34      O        0.18980    0.94140    0.50170    1.000
    O35      O        0.28350    0.33950    0.54260    1.000
    O36      O        0.16520    0.42260    0.50950    1.000
    Cd7      Cd       0.80887    0.75151    0.92233    1.000
    C139     C        0.80170    0.72130    0.83710    1.000
    C140     C        0.67730    0.70720    0.82210    1.000
    H103     H        0.59490    0.70230    0.83140    1.000
    C141     C        0.68060    0.70080    0.79350    1.000
    C142     C        0.80540    0.70560    0.78000    1.000
    H104     H        0.80860    0.69760    0.76110    1.000
    C143     C        0.92700    0.72240    0.79510    1.000
    C144     C        0.91980    0.73620    0.82300    1.000
    H105     H        0.99860    0.75660    0.83260    1.000
    C145     C        0.79960    0.72990    0.86710    1.000
    C146     C        0.55320    0.69020    0.77780    1.000
    C147     C        0.05960    0.72580    0.78040    1.000
    C148     C        0.47580    0.28320    0.95350    1.000
    C149     C        0.41300    0.39800    0.95970    1.000
    H106     H        0.46250    0.47760    0.96210    1.000
    C150     C        0.27200    0.39800    0.96270    1.000
    H107     H        0.22600    0.47930    0.96470    1.000
    C151     C        0.20400    0.28030    0.96270    1.000
    C152     C        0.27080    0.16420    0.95740    1.000
    H108     H        0.22380    0.08250    0.95630    1.000
    C153     C        0.40900    0.16700    0.95380    1.000
    H109     H        0.45640    0.08610    0.95140    1.000
    C154     C        0.63160    0.28570    0.94650    1.000
    H110     H        0.65220    0.36810    0.93650    1.000
    H111     H        0.68330    0.28730    0.96340    1.000
    C155     C        0.64700    0.15700    0.90270    1.000
    H112     H        0.60990    0.22170    0.89110    1.000
    C156     C        0.68800    0.03090    0.89550    1.000
    H113     H        0.68310    0.99350    0.87800    1.000
    C157     C        0.72560    0.05740    0.93860    1.000
    H114     H        0.75240    0.03980    0.95650    1.000
    C158     C        0.05000    0.27900    0.96630    1.000
    H115     H        0.01730    0.18680    0.96470    1.000
    H116     H        0.02760    0.31190    0.98440    1.000
    C159     C        0.97700    0.33200    0.91910    1.000
    H117     H        0.00430    0.25300    0.91030    1.000
    C160     C        0.92000    0.44700    0.90800    1.000
    H118     H        0.90440    0.45750    0.88930    1.000
    C161     C        0.93320    0.48580    0.95010    1.000
    H119     H        0.92880    0.52830    0.96700    1.000
    N25      N        0.73800    0.96800    0.91840    1.000
    N26      N        0.67180    0.17270    0.93080    1.000
    N27      N        0.88980    0.54330    0.92650    1.000
    N28      N        0.98260    0.36220    0.94630    1.000
    O37      O        0.70360    0.67990    0.88075    1.000
    O38      O        0.90260    0.77950    0.87873    1.000
    O39      O        0.44090    0.68070    0.78975    1.000
    O40      O        0.55860    0.68980    0.75170    1.000
    O41      O        0.16050    0.78350    0.79260    1.000
    O42      O        0.07740    0.66520    0.75950    1.000
    Cd8      Cd       0.19113    0.24849    0.42233    1.000
    C162     C        0.19830    0.27870    0.33710    1.000
    C163     C        0.32270    0.29280    0.32210    1.000
    H120     H        0.40510    0.29770    0.33140    1.000
    C164     C        0.31940    0.29920    0.29350    1.000
    C165     C        0.19460    0.29440    0.28000    1.000
    H121     H        0.19140    0.30240    0.26110    1.000
    C166     C        0.07300    0.27760    0.29510    1.000
    C167     C        0.08020    0.26380    0.32300    1.000
    H122     H        0.00140    0.24340    0.33260    1.000
    C168     C        0.20040    0.27010    0.36710    1.000
    C169     C        0.44680    0.30980    0.27780    1.000
    C170     C        0.94040    0.27420    0.28040    1.000
    C171     C        0.52420    0.71680    0.45350    1.000
    C172     C        0.58700    0.60200    0.45970    1.000
    H123     H        0.53750    0.52240    0.46210    1.000
    C173     C        0.72800    0.60200    0.46270    1.000
    H124     H        0.77400    0.52070    0.46470    1.000
    C174     C        0.79600    0.71970    0.46270    1.000
    C175     C        0.72920    0.83580    0.45740    1.000
    H125     H        0.77620    0.91750    0.45630    1.000
    C176     C        0.59100    0.83300    0.45380    1.000
    H126     H        0.54360    0.91390    0.45140    1.000
    C177     C        0.36840    0.71430    0.44650    1.000
    H127     H        0.34780    0.63190    0.43650    1.000
    H128     H        0.31670    0.71270    0.46340    1.000
    C178     C        0.35300    0.84300    0.40270    1.000
    H129     H        0.39010    0.77830    0.39110    1.000
    C179     C        0.31200    0.96910    0.39550    1.000
    H130     H        0.31690    0.00650    0.37800    1.000
    C180     C        0.27440    0.94260    0.43860    1.000
    H131     H        0.24760    0.96020    0.45650    1.000
    C181     C        0.95000    0.72100    0.46630    1.000
    H132     H        0.98270    0.81320    0.46470    1.000
    H133     H        0.97240    0.68810    0.48440    1.000
    C182     C        0.02300    0.66800    0.41910    1.000
    H134     H        0.99570    0.74700    0.41030    1.000
    C183     C        0.08000    0.55300    0.40800    1.000
    H135     H        0.09560    0.54250    0.38930    1.000
    C184     C        0.06680    0.51420    0.45010    1.000
    H136     H        0.07120    0.47170    0.46700    1.000
    N29      N        0.26200    0.03200    0.41840    1.000
    N30      N        0.32820    0.82730    0.43080    1.000
    N31      N        0.11020    0.45670    0.42650    1.000
    N32      N        0.01740    0.63780    0.44630    1.000
    O43      O        0.29640    0.32010    0.38075    1.000
    O44      O        0.09740    0.22050    0.37873    1.000
    O45      O        0.55910    0.31930    0.28975    1.000
    O46      O        0.44140    0.31020    0.25170    1.000
    O47      O        0.83950    0.21650    0.29260    1.000
    O48      O        0.92260    0.33480    0.25950    1.000
    Cd9      Cd       0.69472    0.30528    0.25000    1.000
    Cd10     Cd       0.30528    0.69472    0.75000    1.000
    Cd11     Cd       0.19472    0.19472    0.50000    1.000
    Cd12     Cd       0.80528    0.80528    0.00000    1.000
