# CIF file generated by openbabel 3.1.0, see https://openbabel.org
data_I
_chemical_name_common 'image0'
_cell_length_a 21.717
_cell_length_b 23.369
_cell_length_c 15.071
_cell_angle_alpha 90
_cell_angle_beta 90
_cell_angle_gamma 90
_space_group_name_H-M_alt 'P 1'
_space_group_name_Hall 'P 1'
loop_
    _symmetry_equiv_pos_as_xyz
    x,y,z
loop_
    _atom_site_label
    _atom_site_type_symbol
    _atom_site_fract_x
    _atom_site_fract_y
    _atom_site_fract_z
    _atom_site_occupancy
    Cs1      Cs       0.55817    0.52697    0.85943    1.000
    Cu1      Cu       0.55865    0.68578    0.91513    1.000
    Si1      Si       0.69306    0.62504    0.72359    1.000
    Si2      Si       0.56325    0.63730    0.67961    1.000
    Si3      Si       0.43255    0.62408    0.71886    1.000
    Si4      Si       0.42346    0.62932    0.92011    1.000
    Si5      Si       0.69322    0.62921    0.92514    1.000
    O1       O        0.69300    0.69200    0.70360    1.000
    O2       O        0.56240    0.69560    0.73720    1.000
    O3       O        0.43250    0.69140    0.70420    1.000
    O4       O        0.62300    0.59880    0.70760    1.000
    O5       O        0.50310    0.59820    0.70390    1.000
    O6       O        0.41170    0.60560    0.81970    1.000
    O7       O        0.49520    0.63160    0.94410    1.000
    O8       O        0.62040    0.63000    0.93800    1.000
    O9       O        0.71360    0.60950    0.82500    1.000
    O10      O        0.72160    0.69410    0.94180    1.000
    O11      O        0.39320    0.69420    0.92810    1.000
    C1       C        0.73230    0.57950    0.00250    1.000
    H1       H        0.72510    0.59190    0.06370    1.000
    H2       H        0.77670    0.57950    0.99040    1.000
    H3       H        0.71590    0.54080    0.99430    1.000
    C2       C        0.74600    0.58590    0.65010    1.000
    H4       H        0.73770    0.59640    0.58830    1.000
    H5       H        0.73990    0.54460    0.65780    1.000
    H6       H        0.78860    0.59580    0.66510    1.000
    C3       C        0.56530    0.65110    0.55920    1.000
    H7       H        0.57180    0.61500    0.52750    1.000
    H8       H        0.59900    0.67750    0.54570    1.000
    H9       H        0.52610    0.66810    0.54050    1.000
    C4       C        0.38040    0.58530    0.64300    1.000
    H10      H        0.33760    0.59500    0.65700    1.000
    H11      H        0.38650    0.54400    0.65010    1.000
    H12      H        0.38950    0.59620    0.58160    1.000
    C5       C        0.38110    0.58080    0.99590    1.000
    H13      H        0.33710    0.58980    0.99360    1.000
    H14      H        0.39630    0.58600    0.05660    1.000
    H15      H        0.38760    0.54110    0.97740    1.000
    H16      H        0.40600    0.75650    0.10720    1.000
    H17      H        0.47450    0.78050    0.09410    1.000
    H18      H        0.46240    0.71300    0.09640    1.000
    H19      H        0.62940    0.77750    0.09880    1.000
    H20      H        0.69930    0.76090    0.12040    1.000
    H21      H        0.64920    0.71160    0.10490    1.000
    Cs2      Cs       0.94183    0.47303    0.35943    1.000
    Cu2      Cu       0.94135    0.31422    0.41513    1.000
    Si6      Si       0.80694    0.37496    0.22359    1.000
    Si7      Si       0.93675    0.36270    0.17961    1.000
    Si8      Si       0.06745    0.37592    0.21886    1.000
    Si9      Si       0.07654    0.37068    0.42011    1.000
    Si10     Si       0.80678    0.37079    0.42514    1.000
    O12      O        0.80700    0.30800    0.20360    1.000
    O13      O        0.93760    0.30440    0.23720    1.000
    O14      O        0.06750    0.30860    0.20420    1.000
    O15      O        0.87700    0.40120    0.20760    1.000
    O16      O        0.99690    0.40180    0.20390    1.000
    O17      O        0.08830    0.39440    0.31970    1.000
    O18      O        0.00480    0.36840    0.44410    1.000
    O19      O        0.87960    0.37000    0.43800    1.000
    O20      O        0.78640    0.39050    0.32500    1.000
    O21      O        0.77840    0.30590    0.44180    1.000
    O22      O        0.10680    0.30580    0.42810    1.000
    C6       C        0.76770    0.42050    0.50250    1.000
    H22      H        0.77490    0.40810    0.56370    1.000
    H23      H        0.72330    0.42050    0.49040    1.000
    H24      H        0.78410    0.45920    0.49430    1.000
    C7       C        0.75400    0.41410    0.15010    1.000
    H25      H        0.76230    0.40360    0.08830    1.000
    H26      H        0.76010    0.45540    0.15780    1.000
    H27      H        0.71140    0.40420    0.16510    1.000
    C8       C        0.93470    0.34890    0.05920    1.000
    H28      H        0.92820    0.38500    0.02750    1.000
    H29      H        0.90100    0.32250    0.04570    1.000
    H30      H        0.97390    0.33190    0.04050    1.000
    C9       C        0.11960    0.41470    0.14300    1.000
    H31      H        0.16240    0.40500    0.15700    1.000
    H32      H        0.11350    0.45600    0.15010    1.000
    H33      H        0.11050    0.40380    0.08160    1.000
    C10      C        0.11890    0.41920    0.49590    1.000
    H34      H        0.16290    0.41020    0.49360    1.000
    H35      H        0.10370    0.41400    0.55660    1.000
    H36      H        0.11240    0.45890    0.47740    1.000
    H37      H        0.09400    0.24350    0.60720    1.000
    H38      H        0.02550    0.21950    0.59410    1.000
    H39      H        0.03760    0.28700    0.59640    1.000
    H40      H        0.87060    0.22250    0.59880    1.000
    H41      H        0.80070    0.23910    0.62040    1.000
    H42      H        0.85080    0.28840    0.60490    1.000
    Cs3      Cs       0.44183    0.02697    0.14057    1.000
    Cu3      Cu       0.44135    0.18578    0.08487    1.000
    Si11     Si       0.30694    0.12504    0.27641    1.000
    Si12     Si       0.43675    0.13730    0.32039    1.000
    Si13     Si       0.56745    0.12408    0.28114    1.000
    Si14     Si       0.57654    0.12932    0.07989    1.000
    Si15     Si       0.30678    0.12921    0.07486    1.000
    O23      O        0.30700    0.19200    0.29640    1.000
    O24      O        0.43760    0.19560    0.26280    1.000
    O25      O        0.56750    0.19140    0.29580    1.000
    O26      O        0.37700    0.09880    0.29240    1.000
    O27      O        0.49690    0.09820    0.29610    1.000
    O28      O        0.58830    0.10560    0.18030    1.000
    O29      O        0.50480    0.13160    0.05590    1.000
    O30      O        0.37960    0.13000    0.06200    1.000
    O31      O        0.28640    0.10950    0.17500    1.000
    O32      O        0.27840    0.19410    0.05820    1.000
    O33      O        0.60680    0.19420    0.07190    1.000
    C11      C        0.26770    0.07950    0.99750    1.000
    H43      H        0.27490    0.09190    0.93630    1.000
    H44      H        0.22330    0.07950    0.00960    1.000
    H45      H        0.28410    0.04080    0.00570    1.000
    C12      C        0.25400    0.08590    0.34990    1.000
    H46      H        0.26230    0.09640    0.41170    1.000
    H47      H        0.26010    0.04460    0.34220    1.000
    H48      H        0.21140    0.09580    0.33490    1.000
    C13      C        0.43470    0.15110    0.44080    1.000
    H49      H        0.42820    0.11500    0.47250    1.000
    H50      H        0.40100    0.17750    0.45430    1.000
    H51      H        0.47390    0.16810    0.45950    1.000
    C14      C        0.61960    0.08530    0.35700    1.000
    H52      H        0.66240    0.09500    0.34300    1.000
    H53      H        0.61350    0.04400    0.34990    1.000
    H54      H        0.61050    0.09620    0.41840    1.000
    C15      C        0.61890    0.08080    0.00410    1.000
    H55      H        0.66290    0.08980    0.00640    1.000
    H56      H        0.60370    0.08600    0.94340    1.000
    H57      H        0.61240    0.04110    0.02260    1.000
    H58      H        0.59400    0.25650    0.89280    1.000
    H59      H        0.52550    0.28050    0.90590    1.000
    H60      H        0.53760    0.21300    0.90360    1.000
    H61      H        0.37060    0.27750    0.90120    1.000
    H62      H        0.30070    0.26090    0.87960    1.000
    H63      H        0.35080    0.21160    0.89510    1.000
    Cs4      Cs       0.05817    0.97303    0.64057    1.000
    Cu4      Cu       0.05865    0.81422    0.58487    1.000
    Si16     Si       0.19306    0.87496    0.77641    1.000
    Si17     Si       0.06325    0.86270    0.82039    1.000
    Si18     Si       0.93255    0.87592    0.78114    1.000
    Si19     Si       0.92346    0.87068    0.57989    1.000
    Si20     Si       0.19322    0.87079    0.57486    1.000
    O34      O        0.19300    0.80800    0.79640    1.000
    O35      O        0.06240    0.80440    0.76280    1.000
    O36      O        0.93250    0.80860    0.79580    1.000
    O37      O        0.12300    0.90120    0.79240    1.000
    O38      O        0.00310    0.90180    0.79610    1.000
    O39      O        0.91170    0.89440    0.68030    1.000
    O40      O        0.99520    0.86840    0.55590    1.000
    O41      O        0.12040    0.87000    0.56200    1.000
    O42      O        0.21360    0.89050    0.67500    1.000
    O43      O        0.22160    0.80590    0.55820    1.000
    O44      O        0.89320    0.80580    0.57190    1.000
    C16      C        0.23230    0.92050    0.49750    1.000
    H64      H        0.22510    0.90810    0.43630    1.000
    H65      H        0.27670    0.92050    0.50960    1.000
    H66      H        0.21590    0.95920    0.50570    1.000
    C17      C        0.24600    0.91410    0.84990    1.000
    H67      H        0.23770    0.90360    0.91170    1.000
    H68      H        0.23990    0.95540    0.84220    1.000
    H69      H        0.28860    0.90420    0.83490    1.000
    C18      C        0.06530    0.84890    0.94080    1.000
    H70      H        0.07180    0.88500    0.97250    1.000
    H71      H        0.09900    0.82250    0.95430    1.000
    H72      H        0.02610    0.83190    0.95950    1.000
    C19      C        0.88040    0.91470    0.85700    1.000
    H73      H        0.83760    0.90500    0.84300    1.000
    H74      H        0.88650    0.95600    0.84990    1.000
    H75      H        0.88950    0.90380    0.91840    1.000
    C20      C        0.88110    0.91920    0.50410    1.000
    H76      H        0.83710    0.91020    0.50640    1.000
    H77      H        0.89630    0.91400    0.44340    1.000
    H78      H        0.88760    0.95890    0.52260    1.000
    H79      H        0.90600    0.74350    0.39280    1.000
    H80      H        0.97450    0.71950    0.40590    1.000
    H81      H        0.96240    0.78700    0.40360    1.000
    H82      H        0.12940    0.72250    0.40120    1.000
    H83      H        0.19930    0.73910    0.37960    1.000
    H84      H        0.14920    0.78840    0.39510    1.000
    Cs5      Cs       0.44183    0.47303    0.14057    1.000
    Cu5      Cu       0.44135    0.31422    0.08487    1.000
    Si21     Si       0.30694    0.37496    0.27641    1.000
    Si22     Si       0.43675    0.36270    0.32039    1.000
    Si23     Si       0.56745    0.37592    0.28114    1.000
    Si24     Si       0.57654    0.37068    0.07989    1.000
    Si25     Si       0.30678    0.37079    0.07486    1.000
    O45      O        0.30700    0.30800    0.29640    1.000
    O46      O        0.43760    0.30440    0.26280    1.000
    O47      O        0.56750    0.30860    0.29580    1.000
    O48      O        0.37700    0.40120    0.29240    1.000
    O49      O        0.49690    0.40180    0.29610    1.000
    O50      O        0.58830    0.39440    0.18030    1.000
    O51      O        0.50480    0.36840    0.05590    1.000
    O52      O        0.37960    0.37000    0.06200    1.000
    O53      O        0.28640    0.39050    0.17500    1.000
    O54      O        0.27840    0.30590    0.05820    1.000
    O55      O        0.60680    0.30580    0.07190    1.000
    C21      C        0.26770    0.42050    0.99750    1.000
    H85      H        0.27490    0.40810    0.93630    1.000
    H86      H        0.22330    0.42050    0.00960    1.000
    H87      H        0.28410    0.45920    0.00570    1.000
    C22      C        0.25400    0.41410    0.34990    1.000
    H88      H        0.26230    0.40360    0.41170    1.000
    H89      H        0.26010    0.45540    0.34220    1.000
    H90      H        0.21140    0.40420    0.33490    1.000
    C23      C        0.43470    0.34890    0.44080    1.000
    H91      H        0.42820    0.38500    0.47250    1.000
    H92      H        0.40100    0.32250    0.45430    1.000
    H93      H        0.47390    0.33190    0.45950    1.000
    C24      C        0.61960    0.41470    0.35700    1.000
    H94      H        0.66240    0.40500    0.34300    1.000
    H95      H        0.61350    0.45600    0.34990    1.000
    H96      H        0.61050    0.40380    0.41840    1.000
    C25      C        0.61890    0.41920    0.00410    1.000
    H97      H        0.66290    0.41020    0.00640    1.000
    H98      H        0.60370    0.41400    0.94340    1.000
    H99      H        0.61240    0.45890    0.02260    1.000
    H100     H        0.59400    0.24350    0.89280    1.000
    H101     H        0.52550    0.21950    0.90590    1.000
    H102     H        0.53760    0.28700    0.90360    1.000
    H103     H        0.37060    0.22250    0.90120    1.000
    H104     H        0.30070    0.23910    0.87960    1.000
    H105     H        0.35080    0.28840    0.89510    1.000
    Cs6      Cs       0.05817    0.52697    0.64057    1.000
    Cu6      Cu       0.05865    0.68578    0.58487    1.000
    Si26     Si       0.19306    0.62504    0.77641    1.000
    Si27     Si       0.06325    0.63730    0.82039    1.000
    Si28     Si       0.93255    0.62408    0.78114    1.000
    Si29     Si       0.92346    0.62932    0.57989    1.000
    Si30     Si       0.19322    0.62921    0.57486    1.000
    O56      O        0.19300    0.69200    0.79640    1.000
    O57      O        0.06240    0.69560    0.76280    1.000
    O58      O        0.93250    0.69140    0.79580    1.000
    O59      O        0.12300    0.59880    0.79240    1.000
    O60      O        0.00310    0.59820    0.79610    1.000
    O61      O        0.91170    0.60560    0.68030    1.000
    O62      O        0.99520    0.63160    0.55590    1.000
    O63      O        0.12040    0.63000    0.56200    1.000
    O64      O        0.21360    0.60950    0.67500    1.000
    O65      O        0.22160    0.69410    0.55820    1.000
    O66      O        0.89320    0.69420    0.57190    1.000
    C26      C        0.23230    0.57950    0.49750    1.000
    H106     H        0.22510    0.59190    0.43630    1.000
    H107     H        0.27670    0.57950    0.50960    1.000
    H108     H        0.21590    0.54080    0.50570    1.000
    C27      C        0.24600    0.58590    0.84990    1.000
    H109     H        0.23770    0.59640    0.91170    1.000
    H110     H        0.23990    0.54460    0.84220    1.000
    H111     H        0.28860    0.59580    0.83490    1.000
    C28      C        0.06530    0.65110    0.94080    1.000
    H112     H        0.07180    0.61500    0.97250    1.000
    H113     H        0.09900    0.67750    0.95430    1.000
    H114     H        0.02610    0.66810    0.95950    1.000
    C29      C        0.88040    0.58530    0.85700    1.000
    H115     H        0.83760    0.59500    0.84300    1.000
    H116     H        0.88650    0.54400    0.84990    1.000
    H117     H        0.88950    0.59620    0.91840    1.000
    C30      C        0.88110    0.58080    0.50410    1.000
    H118     H        0.83710    0.58980    0.50640    1.000
    H119     H        0.89630    0.58600    0.44340    1.000
    H120     H        0.88760    0.54110    0.52260    1.000
    H121     H        0.90600    0.75650    0.39280    1.000
    H122     H        0.97450    0.78050    0.40590    1.000
    H123     H        0.96240    0.71300    0.40360    1.000
    H124     H        0.12940    0.77750    0.40120    1.000
    H125     H        0.19930    0.76090    0.37960    1.000
    H126     H        0.14920    0.71160    0.39510    1.000
    Cs7      Cs       0.55817    0.97303    0.85943    1.000
    Cu7      Cu       0.55865    0.81422    0.91513    1.000
    Si31     Si       0.69306    0.87496    0.72359    1.000
    Si32     Si       0.56325    0.86270    0.67961    1.000
    Si33     Si       0.43255    0.87592    0.71886    1.000
    Si34     Si       0.42346    0.87068    0.92011    1.000
    Si35     Si       0.69322    0.87079    0.92514    1.000
    O67      O        0.69300    0.80800    0.70360    1.000
    O68      O        0.56240    0.80440    0.73720    1.000
    O69      O        0.43250    0.80860    0.70420    1.000
    O70      O        0.62300    0.90120    0.70760    1.000
    O71      O        0.50310    0.90180    0.70390    1.000
    O72      O        0.41170    0.89440    0.81970    1.000
    O73      O        0.49520    0.86840    0.94410    1.000
    O74      O        0.62040    0.87000    0.93800    1.000
    O75      O        0.71360    0.89050    0.82500    1.000
    O76      O        0.72160    0.80590    0.94180    1.000
    O77      O        0.39320    0.80580    0.92810    1.000
    C31      C        0.73230    0.92050    0.00250    1.000
    H127     H        0.72510    0.90810    0.06370    1.000
    H128     H        0.77670    0.92050    0.99040    1.000
    H129     H        0.71590    0.95920    0.99430    1.000
    C32      C        0.74600    0.91410    0.65010    1.000
    H130     H        0.73770    0.90360    0.58830    1.000
    H131     H        0.73990    0.95540    0.65780    1.000
    H132     H        0.78860    0.90420    0.66510    1.000
    C33      C        0.56530    0.84890    0.55920    1.000
    H133     H        0.57180    0.88500    0.52750    1.000
    H134     H        0.59900    0.82250    0.54570    1.000
    H135     H        0.52610    0.83190    0.54050    1.000
    C34      C        0.38040    0.91470    0.64300    1.000
    H136     H        0.33760    0.90500    0.65700    1.000
    H137     H        0.38650    0.95600    0.65010    1.000
    H138     H        0.38950    0.90380    0.58160    1.000
    C35      C        0.38110    0.91920    0.99590    1.000
    H139     H        0.33710    0.91020    0.99360    1.000
    H140     H        0.39630    0.91400    0.05660    1.000
    H141     H        0.38760    0.95890    0.97740    1.000
    H142     H        0.40600    0.74350    0.10720    1.000
    H143     H        0.47450    0.71950    0.09410    1.000
    H144     H        0.46240    0.78700    0.09640    1.000
    H145     H        0.62940    0.72250    0.09880    1.000
    H146     H        0.69930    0.73910    0.12040    1.000
    H147     H        0.64920    0.78840    0.10490    1.000
    Cs8      Cs       0.94183    0.02697    0.35943    1.000
    Cu8      Cu       0.94135    0.18578    0.41513    1.000
    Si36     Si       0.80694    0.12504    0.22359    1.000
    Si37     Si       0.93675    0.13730    0.17961    1.000
    Si38     Si       0.06745    0.12408    0.21886    1.000
    Si39     Si       0.07654    0.12932    0.42011    1.000
    Si40     Si       0.80678    0.12921    0.42514    1.000
    O78      O        0.80700    0.19200    0.20360    1.000
    O79      O        0.93760    0.19560    0.23720    1.000
    O80      O        0.06750    0.19140    0.20420    1.000
    O81      O        0.87700    0.09880    0.20760    1.000
    O82      O        0.99690    0.09820    0.20390    1.000
    O83      O        0.08830    0.10560    0.31970    1.000
    O84      O        0.00480    0.13160    0.44410    1.000
    O85      O        0.87960    0.13000    0.43800    1.000
    O86      O        0.78640    0.10950    0.32500    1.000
    O87      O        0.77840    0.19410    0.44180    1.000
    O88      O        0.10680    0.19420    0.42810    1.000
    C36      C        0.76770    0.07950    0.50250    1.000
    H148     H        0.77490    0.09190    0.56370    1.000
    H149     H        0.72330    0.07950    0.49040    1.000
    H150     H        0.78410    0.04080    0.49430    1.000
    C37      C        0.75400    0.08590    0.15010    1.000
    H151     H        0.76230    0.09640    0.08830    1.000
    H152     H        0.76010    0.04460    0.15780    1.000
    H153     H        0.71140    0.09580    0.16510    1.000
    C38      C        0.93470    0.15110    0.05920    1.000
    H154     H        0.92820    0.11500    0.02750    1.000
    H155     H        0.90100    0.17750    0.04570    1.000
    H156     H        0.97390    0.16810    0.04050    1.000
    C39      C        0.11960    0.08530    0.14300    1.000
    H157     H        0.16240    0.09500    0.15700    1.000
    H158     H        0.11350    0.04400    0.15010    1.000
    H159     H        0.11050    0.09620    0.08160    1.000
    C40      C        0.11890    0.08080    0.49590    1.000
    H160     H        0.16290    0.08980    0.49360    1.000
    H161     H        0.10370    0.08600    0.55660    1.000
    H162     H        0.11240    0.04110    0.47740    1.000
    H163     H        0.09400    0.25650    0.60720    1.000
    H164     H        0.02550    0.28050    0.59410    1.000
    H165     H        0.03760    0.21300    0.59640    1.000
    H166     H        0.87060    0.27750    0.59880    1.000
    H167     H        0.80070    0.26090    0.62040    1.000
    H168     H        0.85080    0.21160    0.60490    1.000
    Cs9      Cs       0.75085    0.75000    0.54064    1.000
    Cs10     Cs       0.31026    0.75000    0.70572    1.000
    Cu9      Cu       0.63265    0.75000    0.73002    1.000
    Cu10     Cu       0.49184    0.75000    0.72817    1.000
    Si41     Si       0.43446    0.75000    0.95647    1.000
    Si42     Si       0.68013    0.75000    0.96761    1.000
    O89      O        0.61770    0.75000    0.90680    1.000
    O90      O        0.49970    0.75000    0.90240    1.000
    C41      C        0.44560    0.75000    0.07770    1.000
    C42      C        0.66240    0.75000    0.08690    1.000
    Cs11     Cs       0.74915    0.25000    0.04064    1.000
    Cs12     Cs       0.18974    0.25000    0.20572    1.000
    Cu11     Cu       0.86735    0.25000    0.23002    1.000
    Cu12     Cu       0.00816    0.25000    0.22817    1.000
    Si43     Si       0.06554    0.25000    0.45647    1.000
    Si44     Si       0.81987    0.25000    0.46761    1.000
    O91      O        0.88230    0.25000    0.40680    1.000
    O92      O        0.00030    0.25000    0.40240    1.000
    C43      C        0.05440    0.25000    0.57770    1.000
    C44      C        0.83760    0.25000    0.58690    1.000
    Cs13     Cs       0.24915    0.25000    0.45936    1.000
    Cs14     Cs       0.68974    0.25000    0.29428    1.000
    Cu13     Cu       0.36735    0.25000    0.26998    1.000
    Cu14     Cu       0.50816    0.25000    0.27183    1.000
    Si45     Si       0.56554    0.25000    0.04353    1.000
    Si46     Si       0.31987    0.25000    0.03239    1.000
    O93      O        0.38230    0.25000    0.09320    1.000
    O94      O        0.50030    0.25000    0.09760    1.000
    C45      C        0.55440    0.25000    0.92230    1.000
    C46      C        0.33760    0.25000    0.91310    1.000
    Cs15     Cs       0.25085    0.75000    0.95936    1.000
    Cs16     Cs       0.81026    0.75000    0.79428    1.000
    Cu15     Cu       0.13265    0.75000    0.76998    1.000
    Cu16     Cu       0.99184    0.75000    0.77183    1.000
    Si47     Si       0.93446    0.75000    0.54353    1.000
    Si48     Si       0.18013    0.75000    0.53239    1.000
    O95      O        0.11770    0.75000    0.59320    1.000
    O96      O        0.99970    0.75000    0.59760    1.000
    C47      C        0.94560    0.75000    0.42230    1.000
    C48      C        0.16240    0.75000    0.41310    1.000
