# CIF file generated by openbabel 3.1.0, see https://openbabel.org
data_I
_chemical_name_common 'image0'
_cell_length_a 43.52
_cell_length_b 12.546
_cell_length_c 21.894
_cell_angle_alpha 90
_cell_angle_beta 105.053
_cell_angle_gamma 90
_space_group_name_H-M_alt 'P 1'
_space_group_name_Hall 'P 1'
loop_
    _symmetry_equiv_pos_as_xyz
    x,y,z
loop_
    _atom_site_label
    _atom_site_type_symbol
    _atom_site_fract_x
    _atom_site_fract_y
    _atom_site_fract_z
    _atom_site_occupancy
    Ag1      Ag       0.20464    0.88650    0.31717    1.000
    Ag2      Ag       0.05220    0.65590    0.18960    1.000
    N1       N        0.16350    0.78200    0.26360    1.000
    C1       C        0.14550    0.80300    0.20810    1.000
    H1       H        0.15380    0.84360    0.18060    1.000
    C2       C        0.14970    0.72500    0.29390    1.000
    H2       H        0.16050    0.70390    0.33450    1.000
    N2       N        0.10180    0.72000    0.22340    1.000
    C3       C        0.03200    0.41700    0.21170    1.000
    H3       H        0.04890    0.41940    0.24790    1.000
    N3       N        0.02500    0.50700    0.18170    1.000
    C4       C        0.12160    0.69400    0.27200    1.000
    H4       H        0.11470    0.64290    0.29630    1.000
    C5       C        0.01730    0.31400    0.19650    1.000
    H5       H        0.02470    0.25640    0.22270    1.000
    C6       C        0.98470    0.40400    0.11440    1.000
    H6       H        0.96690    0.40540    0.08010    1.000
    C7       C        0.11360    0.76800    0.18700    1.000
    H7       H        0.10180    0.78160    0.14580    1.000
    C8       C        0.99940    0.49900    0.13000    1.000
    H8       H        0.99230    0.55860    0.10480    1.000
    N4       N        0.99270    0.30200    0.14390    1.000
    N5       N        0.73480    0.40900    0.23670    1.000
    C9       C        0.74010    0.30400    0.21040    1.000
    H9       H        0.72800    0.24440    0.21480    1.000
    C10      C        0.76480    0.29700    0.17780    1.000
    H10      H        0.77120    0.23250    0.16480    1.000
    N6       N        0.77910    0.39600    0.16620    1.000
    C11      C        0.75010    0.49700    0.22660    1.000
    H11      H        0.74580    0.56410    0.24090    1.000
    C12      C        0.77510    0.48000    0.19020    1.000
    H12      H        0.78800    0.53760    0.18610    1.000
    Ag3      Ag       0.30920    0.13050    0.59642    1.000
    Ag4      Ag       0.46558    0.34070    0.60932    1.000
    N7       N        0.26340    0.08200    0.51160    1.000
    N8       N        0.35020    0.22300    0.58490    1.000
    C13      C        0.22970    0.93800    0.46590    1.000
    H13      H        0.22050    0.87410    0.47320    1.000
    C14      C        0.36520    0.28500    0.62510    1.000
    H14      H        0.35480    0.31110    0.65420    1.000
    C15      C        0.39520    0.31900    0.63120    1.000
    H15      H        0.40290    0.37270    0.66070    1.000
    C16      C        0.24720    0.00300    0.51890    1.000
    H16      H        0.24630    0.98440    0.55960    1.000
    C17      C        0.37080    0.19300    0.55340    1.000
    H17      H        0.36360    0.13660    0.52560    1.000
    C18      C        0.24370    0.05700    0.40100    1.000
    H18      H        0.24300    0.08340    0.36140    1.000
    N9       N        0.41430    0.28300    0.59820    1.000
    C19      C        0.48790    0.68400    0.66910    1.000
    H19      H        0.47830    0.73340    0.68950    1.000
    C20      C        0.47320    0.58300    0.65680    1.000
    H20      H        0.45500    0.56800    0.67030    1.000
    N10      N        0.22690    0.97100    0.40600    1.000
    N11      N        0.48540    0.50600    0.62530    1.000
    C21      C        0.50870    0.53800    0.60200    1.000
    H21      H        0.51550    0.49230    0.57480    1.000
    C22      C        0.26300    0.11000    0.45580    1.000
    H22      H        0.27570    0.16690    0.45000    1.000
    N12      N        0.51420    0.71400    0.65410    1.000
    C23      C        0.40120    0.22800    0.55400    1.000
    H23      H        0.41080    0.21070    0.52160    1.000
    C24      C        0.52420    0.63900    0.61600    1.000
    H24      H        0.54120    0.65570    0.59940    1.000
    Ag5      Ag       0.80920    0.36950    0.09642    1.000
    Ag6      Ag       0.96558    0.15930    0.10932    1.000
    N13      N        0.76340    0.41800    0.01160    1.000
    N14      N        0.85020    0.27700    0.08490    1.000
    C25      C        0.72970    0.56200    0.96590    1.000
    H25      H        0.72050    0.62590    0.97320    1.000
    C26      C        0.86520    0.21500    0.12510    1.000
    H26      H        0.85480    0.18890    0.15420    1.000
    C27      C        0.89520    0.18100    0.13120    1.000
    H27      H        0.90290    0.12730    0.16070    1.000
    C28      C        0.74720    0.49700    0.01890    1.000
    H28      H        0.74630    0.51560    0.05960    1.000
    C29      C        0.87080    0.30700    0.05340    1.000
    H29      H        0.86360    0.36340    0.02560    1.000
    C30      C        0.74370    0.44300    0.90100    1.000
    H30      H        0.74300    0.41660    0.86140    1.000
    N15      N        0.91430    0.21700    0.09820    1.000
    C31      C        0.98790    0.81600    0.16910    1.000
    H31      H        0.97830    0.76660    0.18950    1.000
    C32      C        0.97320    0.91700    0.15680    1.000
    H32      H        0.95500    0.93200    0.17030    1.000
    N16      N        0.72690    0.52900    0.90600    1.000
    N17      N        0.98540    0.99400    0.12530    1.000
    C33      C        0.00870    0.96200    0.10200    1.000
    H33      H        0.01550    0.00770    0.07480    1.000
    C34      C        0.76300    0.39000    0.95580    1.000
    H34      H        0.77570    0.33310    0.95000    1.000
    N18      N        0.01420    0.78600    0.15410    1.000
    C35      C        0.90120    0.27200    0.05400    1.000
    H35      H        0.91080    0.28930    0.02160    1.000
    C36      C        0.02420    0.86100    0.11600    1.000
    H36      H        0.04120    0.84430    0.09940    1.000
    N19      N        0.23480    0.09100    0.73670    1.000
    C37      C        0.24010    0.19600    0.71040    1.000
    H37      H        0.22800    0.25560    0.71480    1.000
    C38      C        0.26480    0.20300    0.67780    1.000
    H38      H        0.27120    0.26750    0.66480    1.000
    N20      N        0.27910    0.10400    0.66620    1.000
    C39      C        0.25010    0.00300    0.72660    1.000
    H39      H        0.24580    0.93590    0.74090    1.000
    C40      C        0.27510    0.02000    0.69020    1.000
    H40      H        0.28800    0.96240    0.68610    1.000
    Ag7      Ag       0.70464    0.61350    0.81717    1.000
    Ag8      Ag       0.55220    0.84410    0.68960    1.000
    N21      N        0.66350    0.71800    0.76360    1.000
    C41      C        0.64550    0.69700    0.70810    1.000
    H41      H        0.65380    0.65640    0.68060    1.000
    C42      C        0.64970    0.77500    0.79390    1.000
    H42      H        0.66050    0.79610    0.83450    1.000
    N22      N        0.60180    0.78000    0.72340    1.000
    C43      C        0.53200    0.08300    0.71170    1.000
    H43      H        0.54890    0.08060    0.74790    1.000
    N23      N        0.52500    0.99300    0.68170    1.000
    C44      C        0.62160    0.80600    0.77200    1.000
    H44      H        0.61470    0.85710    0.79630    1.000
    C45      C        0.51730    0.18600    0.69650    1.000
    H45      H        0.52470    0.24360    0.72270    1.000
    C46      C        0.48470    0.09600    0.61440    1.000
    H46      H        0.46690    0.09460    0.58010    1.000
    C47      C        0.61360    0.73200    0.68700    1.000
    H47      H        0.60180    0.71840    0.64580    1.000
    C48      C        0.49940    0.00100    0.63000    1.000
    H48      H        0.49230    0.94140    0.60480    1.000
    N24      N        0.49270    0.19800    0.64390    1.000
    Ag9      Ag       0.19080    0.63050    0.90358    1.000
    Ag10     Ag       0.03442    0.84070    0.89068    1.000
    N25      N        0.23660    0.58200    0.98840    1.000
    N26      N        0.14980    0.72300    0.91510    1.000
    C49      C        0.27030    0.43800    0.03410    1.000
    H49      H        0.27950    0.37410    0.02680    1.000
    C50      C        0.13480    0.78500    0.87490    1.000
    H50      H        0.14520    0.81110    0.84580    1.000
    C51      C        0.10480    0.81900    0.86880    1.000
    H51      H        0.09710    0.87270    0.83930    1.000
    C52      C        0.25280    0.50300    0.98110    1.000
    H52      H        0.25370    0.48440    0.94040    1.000
    C53      C        0.12920    0.69300    0.94660    1.000
    H53      H        0.13640    0.63660    0.97440    1.000
    C54      C        0.25630    0.55700    0.09900    1.000
    H54      H        0.25700    0.58340    0.13860    1.000
    N27      N        0.08570    0.78300    0.90180    1.000
    C55      C        0.01210    0.18400    0.83090    1.000
    H55      H        0.02170    0.23340    0.81050    1.000
    C56      C        0.02680    0.08300    0.84320    1.000
    H56      H        0.04500    0.06800    0.82970    1.000
    N28      N        0.27310    0.47100    0.09400    1.000
    N29      N        0.01460    0.00600    0.87470    1.000
    C57      C        0.99130    0.03800    0.89800    1.000
    H57      H        0.98450    0.99230    0.92520    1.000
    C58      C        0.23700    0.61000    0.04420    1.000
    H58      H        0.22430    0.66690    0.05000    1.000
    N30      N        0.98580    0.21400    0.84590    1.000
    C59      C        0.09880    0.72800    0.94600    1.000
    H59      H        0.08920    0.71070    0.97840    1.000
    C60      C        0.97580    0.13900    0.88400    1.000
    H60      H        0.95880    0.15570    0.90060    1.000
    N31      N        0.76520    0.90900    0.26330    1.000
    C61      C        0.75990    0.80400    0.28960    1.000
    H61      H        0.77200    0.74440    0.28520    1.000
    C62      C        0.73520    0.79700    0.32220    1.000
    H62      H        0.72880    0.73250    0.33520    1.000
    N32      N        0.72090    0.89600    0.33380    1.000
    C63      C        0.74990    0.99700    0.27340    1.000
    H63      H        0.75420    0.06410    0.25910    1.000
    C64      C        0.72490    0.98000    0.30980    1.000
    H64      H        0.71200    0.03760    0.31390    1.000
    Ag11     Ag       0.29536    0.38650    0.18283    1.000
    Ag12     Ag       0.44780    0.15590    0.31040    1.000
    N33      N        0.33650    0.28200    0.23640    1.000
    C65      C        0.35450    0.30300    0.29190    1.000
    H65      H        0.34620    0.34360    0.31940    1.000
    C66      C        0.35030    0.22500    0.20610    1.000
    H66      H        0.33950    0.20390    0.16550    1.000
    N34      N        0.39820    0.22000    0.27660    1.000
    C67      C        0.46800    0.91700    0.28830    1.000
    H67      H        0.45110    0.91940    0.25210    1.000
    N35      N        0.47500    0.00700    0.31830    1.000
    C68      C        0.37840    0.19400    0.22800    1.000
    H68      H        0.38530    0.14290    0.20370    1.000
    C69      C        0.48270    0.81400    0.30350    1.000
    H69      H        0.47530    0.75640    0.27730    1.000
    C70      C        0.51530    0.90400    0.38560    1.000
    H70      H        0.53310    0.90540    0.41990    1.000
    C71      C        0.38640    0.26800    0.31300    1.000
    H71      H        0.39820    0.28160    0.35420    1.000
    C72      C        0.50060    0.99900    0.37000    1.000
    H72      H        0.50770    0.05860    0.39520    1.000
    N36      N        0.50730    0.80200    0.35610    1.000
    Ag13     Ag       0.79536    0.11350    0.68283    1.000
    Ag14     Ag       0.94780    0.34410    0.81040    1.000
    N37      N        0.83650    0.21800    0.73640    1.000
    C73      C        0.85450    0.19700    0.79190    1.000
    H73      H        0.84620    0.15640    0.81940    1.000
    C74      C        0.85030    0.27500    0.70610    1.000
    H74      H        0.83950    0.29610    0.66550    1.000
    N38      N        0.89820    0.28000    0.77660    1.000
    C75      C        0.96800    0.58300    0.78830    1.000
    H75      H        0.95110    0.58060    0.75210    1.000
    N39      N        0.97500    0.49300    0.81830    1.000
    C76      C        0.87840    0.30600    0.72800    1.000
    H76      H        0.88530    0.35710    0.70370    1.000
    C77      C        0.98270    0.68600    0.80350    1.000
    H77      H        0.97530    0.74360    0.77730    1.000
    C78      C        0.01530    0.59600    0.88560    1.000
    H78      H        0.03310    0.59460    0.91990    1.000
    C79      C        0.88640    0.23200    0.81300    1.000
    H79      H        0.89820    0.21840    0.85420    1.000
    C80      C        0.00060    0.50100    0.87000    1.000
    H80      H        0.00770    0.44140    0.89520    1.000
    N40      N        0.00730    0.69800    0.85610    1.000
    N41      N        0.26520    0.59100    0.76330    1.000
    C81      C        0.25990    0.69600    0.78960    1.000
    H81      H        0.27200    0.75560    0.78520    1.000
    C82      C        0.23520    0.70300    0.82220    1.000
    H82      H        0.22880    0.76750    0.83520    1.000
    N42      N        0.22090    0.60400    0.83380    1.000
    C83      C        0.24990    0.50300    0.77340    1.000
    H83      H        0.25420    0.43590    0.75910    1.000
    C84      C        0.22490    0.52000    0.80980    1.000
    H84      H        0.21200    0.46240    0.81390    1.000
    Ag15     Ag       0.69080    0.86950    0.40358    1.000
    Ag16     Ag       0.53442    0.65930    0.39068    1.000
    N43      N        0.73660    0.91800    0.48840    1.000
    N44      N        0.64980    0.77700    0.41510    1.000
    C85      C        0.77030    0.06200    0.53410    1.000
    H85      H        0.77950    0.12590    0.52680    1.000
    C86      C        0.63480    0.71500    0.37490    1.000
    H86      H        0.64520    0.68890    0.34580    1.000
    C87      C        0.60480    0.68100    0.36880    1.000
    H87      H        0.59710    0.62730    0.33930    1.000
    C88      C        0.75280    0.99700    0.48110    1.000
    H88      H        0.75370    0.01560    0.44040    1.000
    C89      C        0.62920    0.80700    0.44660    1.000
    H89      H        0.63640    0.86340    0.47440    1.000
    C90      C        0.75630    0.94300    0.59900    1.000
    H90      H        0.75700    0.91660    0.63860    1.000
    N45      N        0.58570    0.71700    0.40180    1.000
    C91      C        0.51210    0.31600    0.33090    1.000
    H91      H        0.52170    0.26660    0.31050    1.000
    C92      C        0.52680    0.41700    0.34320    1.000
    H92      H        0.54500    0.43200    0.32970    1.000
    N46      N        0.77310    0.02900    0.59400    1.000
    N47      N        0.51460    0.49400    0.37470    1.000
    C93      C        0.49130    0.46200    0.39800    1.000
    H93      H        0.48450    0.50770    0.42520    1.000
    C94      C        0.73700    0.89000    0.54420    1.000
    H94      H        0.72430    0.83310    0.55000    1.000
    N48      N        0.48580    0.28600    0.34590    1.000
    C95      C        0.59880    0.77200    0.44600    1.000
    H95      H        0.58920    0.78930    0.47840    1.000
    C96      C        0.47580    0.36100    0.38400    1.000
    H96      H        0.45880    0.34430    0.40060    1.000
    N49      N        0.23480    0.90900    0.23670    1.000
    C97      C        0.24010    0.80400    0.21040    1.000
    H97      H        0.22800    0.74440    0.21480    1.000
    C98      C        0.26480    0.79700    0.17780    1.000
    H98      H        0.27120    0.73250    0.16480    1.000
    N50      N        0.27910    0.89600    0.16620    1.000
    C99      C        0.25010    0.99700    0.22660    1.000
    H99      H        0.24580    0.06410    0.24090    1.000
    C100     C        0.27510    0.98000    0.19020    1.000
    H100     H        0.28800    0.03760    0.18610    1.000
    Ag17     Ag       0.70464    0.38650    0.31717    1.000
    Ag18     Ag       0.55220    0.15590    0.18960    1.000
    N51      N        0.66350    0.28200    0.26360    1.000
    C101     C        0.64550    0.30300    0.20810    1.000
    H101     H        0.65380    0.34360    0.18060    1.000
    C102     C        0.64970    0.22500    0.29390    1.000
    H102     H        0.66050    0.20390    0.33450    1.000
    N52      N        0.60180    0.22000    0.22340    1.000
    C103     C        0.53200    0.91700    0.21170    1.000
    H103     H        0.54890    0.91940    0.24790    1.000
    N53      N        0.52500    0.00700    0.18170    1.000
    C104     C        0.62160    0.19400    0.27200    1.000
    H104     H        0.61470    0.14290    0.29630    1.000
    C105     C        0.51730    0.81400    0.19650    1.000
    H105     H        0.52470    0.75640    0.22270    1.000
    C106     C        0.48470    0.90400    0.11440    1.000
    H106     H        0.46690    0.90540    0.08010    1.000
    C107     C        0.61360    0.26800    0.18700    1.000
    H107     H        0.60180    0.28160    0.14580    1.000
    C108     C        0.49940    0.99900    0.13000    1.000
    H108     H        0.49230    0.05860    0.10480    1.000
    N54      N        0.49270    0.80200    0.14390    1.000
    Ag19     Ag       0.80920    0.63050    0.59642    1.000
    Ag20     Ag       0.96558    0.84070    0.60932    1.000
    N55      N        0.76340    0.58200    0.51160    1.000
    N56      N        0.85020    0.72300    0.58490    1.000
    C109     C        0.72970    0.43800    0.46590    1.000
    H109     H        0.72050    0.37410    0.47320    1.000
    C110     C        0.86520    0.78500    0.62510    1.000
    H110     H        0.85480    0.81110    0.65420    1.000
    C111     C        0.89520    0.81900    0.63120    1.000
    H111     H        0.90290    0.87270    0.66070    1.000
    C112     C        0.74720    0.50300    0.51890    1.000
    H112     H        0.74630    0.48440    0.55960    1.000
    C113     C        0.87080    0.69300    0.55340    1.000
    H113     H        0.86360    0.63660    0.52560    1.000
    C114     C        0.74370    0.55700    0.40100    1.000
    H114     H        0.74300    0.58340    0.36140    1.000
    N57      N        0.91430    0.78300    0.59820    1.000
    C115     C        0.98790    0.18400    0.66910    1.000
    H115     H        0.97830    0.23340    0.68950    1.000
    C116     C        0.97320    0.08300    0.65680    1.000
    H116     H        0.95500    0.06800    0.67030    1.000
    N58      N        0.72690    0.47100    0.40600    1.000
    N59      N        0.98540    0.00600    0.62530    1.000
    C117     C        0.00870    0.03800    0.60200    1.000
    H117     H        0.01550    0.99230    0.57480    1.000
    C118     C        0.76300    0.61000    0.45580    1.000
    H118     H        0.77570    0.66690    0.45000    1.000
    N60      N        0.01420    0.21400    0.65410    1.000
    C119     C        0.90120    0.72800    0.55400    1.000
    H119     H        0.91080    0.71070    0.52160    1.000
    C120     C        0.02420    0.13900    0.61600    1.000
    H120     H        0.04120    0.15570    0.59940    1.000
    Ag21     Ag       0.30920    0.86950    0.09642    1.000
    Ag22     Ag       0.46558    0.65930    0.10932    1.000
    N61      N        0.26340    0.91800    0.01160    1.000
    N62      N        0.35020    0.77700    0.08490    1.000
    C121     C        0.22970    0.06200    0.96590    1.000
    H121     H        0.22050    0.12590    0.97320    1.000
    C122     C        0.36520    0.71500    0.12510    1.000
    H122     H        0.35480    0.68890    0.15420    1.000
    C123     C        0.39520    0.68100    0.13120    1.000
    H123     H        0.40290    0.62730    0.16070    1.000
    C124     C        0.24720    0.99700    0.01890    1.000
    H124     H        0.24630    0.01560    0.05960    1.000
    C125     C        0.37080    0.80700    0.05340    1.000
    H125     H        0.36360    0.86340    0.02560    1.000
    C126     C        0.24370    0.94300    0.90100    1.000
    H126     H        0.24300    0.91660    0.86140    1.000
    N63      N        0.41430    0.71700    0.09820    1.000
    C127     C        0.48790    0.31600    0.16910    1.000
    H127     H        0.47830    0.26660    0.18950    1.000
    C128     C        0.47320    0.41700    0.15680    1.000
    H128     H        0.45500    0.43200    0.17030    1.000
    N64      N        0.22690    0.02900    0.90600    1.000
    N65      N        0.48540    0.49400    0.12530    1.000
    C129     C        0.50870    0.46200    0.10200    1.000
    H129     H        0.51550    0.50770    0.07480    1.000
    C130     C        0.26300    0.89000    0.95580    1.000
    H130     H        0.27570    0.83310    0.95000    1.000
    N66      N        0.51420    0.28600    0.15410    1.000
    C131     C        0.40120    0.77200    0.05400    1.000
    H131     H        0.41080    0.78930    0.02160    1.000
    C132     C        0.52420    0.36100    0.11600    1.000
    H132     H        0.54120    0.34430    0.09940    1.000
    Ag23     Ag       0.20464    0.11350    0.81717    1.000
    Ag24     Ag       0.05220    0.34410    0.68960    1.000
    N67      N        0.16350    0.21800    0.76360    1.000
    C133     C        0.14550    0.19700    0.70810    1.000
    H133     H        0.15380    0.15640    0.68060    1.000
    C134     C        0.14970    0.27500    0.79390    1.000
    H134     H        0.16050    0.29610    0.83450    1.000
    N68      N        0.10180    0.28000    0.72340    1.000
    C135     C        0.03200    0.58300    0.71170    1.000
    H135     H        0.04890    0.58060    0.74790    1.000
    N69      N        0.02500    0.49300    0.68170    1.000
    C136     C        0.12160    0.30600    0.77200    1.000
    H136     H        0.11470    0.35710    0.79630    1.000
    C137     C        0.01730    0.68600    0.69650    1.000
    H137     H        0.02470    0.74360    0.72270    1.000
    C138     C        0.98470    0.59600    0.61440    1.000
    H138     H        0.96690    0.59460    0.58010    1.000
    C139     C        0.11360    0.23200    0.68700    1.000
    H139     H        0.10180    0.21840    0.64580    1.000
    C140     C        0.99940    0.50100    0.63000    1.000
    H140     H        0.99230    0.44140    0.60480    1.000
    N70      N        0.99270    0.69800    0.64390    1.000
    N71      N        0.73480    0.59100    0.73670    1.000
    C141     C        0.74010    0.69600    0.71040    1.000
    H141     H        0.72800    0.75560    0.71480    1.000
    C142     C        0.76480    0.70300    0.67780    1.000
    H142     H        0.77120    0.76750    0.66480    1.000
    N72      N        0.77910    0.60400    0.66620    1.000
    C143     C        0.75010    0.50300    0.72660    1.000
    H143     H        0.74580    0.43590    0.74090    1.000
    C144     C        0.77510    0.52000    0.69020    1.000
    H144     H        0.78800    0.46240    0.68610    1.000
    Ag25     Ag       0.69080    0.13050    0.90358    1.000
    Ag26     Ag       0.53442    0.34070    0.89068    1.000
    N73      N        0.73660    0.08200    0.98840    1.000
    N74      N        0.64980    0.22300    0.91510    1.000
    C145     C        0.77030    0.93800    0.03410    1.000
    H145     H        0.77950    0.87410    0.02680    1.000
    C146     C        0.63480    0.28500    0.87490    1.000
    H146     H        0.64520    0.31110    0.84580    1.000
    C147     C        0.60480    0.31900    0.86880    1.000
    H147     H        0.59710    0.37270    0.83930    1.000
    C148     C        0.75280    0.00300    0.98110    1.000
    H148     H        0.75370    0.98440    0.94040    1.000
    C149     C        0.62920    0.19300    0.94660    1.000
    H149     H        0.63640    0.13660    0.97440    1.000
    C150     C        0.75630    0.05700    0.09900    1.000
    H150     H        0.75700    0.08340    0.13860    1.000
    N75      N        0.58570    0.28300    0.90180    1.000
    C151     C        0.51210    0.68400    0.83090    1.000
    H151     H        0.52170    0.73340    0.81050    1.000
    C152     C        0.52680    0.58300    0.84320    1.000
    H152     H        0.54500    0.56800    0.82970    1.000
    N76      N        0.77310    0.97100    0.09400    1.000
    N77      N        0.51460    0.50600    0.87470    1.000
    C153     C        0.49130    0.53800    0.89800    1.000
    H153     H        0.48450    0.49230    0.92520    1.000
    C154     C        0.73700    0.11000    0.04420    1.000
    H154     H        0.72430    0.16690    0.05000    1.000
    N78      N        0.48580    0.71400    0.84590    1.000
    C155     C        0.59880    0.22800    0.94600    1.000
    H155     H        0.58920    0.21070    0.97840    1.000
    C156     C        0.47580    0.63900    0.88400    1.000
    H156     H        0.45880    0.65570    0.90060    1.000
    Ag27     Ag       0.79536    0.88650    0.18283    1.000
    Ag28     Ag       0.94780    0.65590    0.31040    1.000
    N79      N        0.83650    0.78200    0.23640    1.000
    C157     C        0.85450    0.80300    0.29190    1.000
    H157     H        0.84620    0.84360    0.31940    1.000
    C158     C        0.85030    0.72500    0.20610    1.000
    H158     H        0.83950    0.70390    0.16550    1.000
    N80      N        0.89820    0.72000    0.27660    1.000
    C159     C        0.96800    0.41700    0.28830    1.000
    H159     H        0.95110    0.41940    0.25210    1.000
    N81      N        0.97500    0.50700    0.31830    1.000
    C160     C        0.87840    0.69400    0.22800    1.000
    H160     H        0.88530    0.64290    0.20370    1.000
    C161     C        0.98270    0.31400    0.30350    1.000
    H161     H        0.97530    0.25640    0.27730    1.000
    C162     C        0.01530    0.40400    0.38560    1.000
    H162     H        0.03310    0.40540    0.41990    1.000
    C163     C        0.88640    0.76800    0.31300    1.000
    H163     H        0.89820    0.78160    0.35420    1.000
    C164     C        0.00060    0.49900    0.37000    1.000
    H164     H        0.00770    0.55860    0.39520    1.000
    N82      N        0.00730    0.30200    0.35610    1.000
    N83      N        0.26520    0.40900    0.26330    1.000
    C165     C        0.25990    0.30400    0.28960    1.000
    H165     H        0.27200    0.24440    0.28520    1.000
    C166     C        0.23520    0.29700    0.32220    1.000
    H166     H        0.22880    0.23250    0.33520    1.000
    N84      N        0.22090    0.39600    0.33380    1.000
    C167     C        0.24990    0.49700    0.27340    1.000
    H167     H        0.25420    0.56410    0.25910    1.000
    C168     C        0.22490    0.48000    0.30980    1.000
    H168     H        0.21200    0.53760    0.31390    1.000
    N85      N        0.76520    0.09100    0.76330    1.000
    C169     C        0.75990    0.19600    0.78960    1.000
    H169     H        0.77200    0.25560    0.78520    1.000
    C170     C        0.73520    0.20300    0.82220    1.000
    H170     H        0.72880    0.26750    0.83520    1.000
    N86      N        0.72090    0.10400    0.83380    1.000
    C171     C        0.74990    0.00300    0.77340    1.000
    H171     H        0.75420    0.93590    0.75910    1.000
    C172     C        0.72490    0.02000    0.80980    1.000
    H172     H        0.71200    0.96240    0.81390    1.000
    Ag29     Ag       0.29536    0.61350    0.68283    1.000
    Ag30     Ag       0.44780    0.84410    0.81040    1.000
    N87      N        0.33650    0.71800    0.73640    1.000
    C173     C        0.35450    0.69700    0.79190    1.000
    H173     H        0.34620    0.65640    0.81940    1.000
    C174     C        0.35030    0.77500    0.70610    1.000
    H174     H        0.33950    0.79610    0.66550    1.000
    N88      N        0.39820    0.78000    0.77660    1.000
    C175     C        0.46800    0.08300    0.78830    1.000
    H175     H        0.45110    0.08060    0.75210    1.000
    N89      N        0.47500    0.99300    0.81830    1.000
    C176     C        0.37840    0.80600    0.72800    1.000
    H176     H        0.38530    0.85710    0.70370    1.000
    C177     C        0.48270    0.18600    0.80350    1.000
    H177     H        0.47530    0.24360    0.77730    1.000
    C178     C        0.51530    0.09600    0.88560    1.000
    H178     H        0.53310    0.09460    0.91990    1.000
    C179     C        0.38640    0.73200    0.81300    1.000
    H179     H        0.39820    0.71840    0.85420    1.000
    C180     C        0.50060    0.00100    0.87000    1.000
    H180     H        0.50770    0.94140    0.89520    1.000
    N90      N        0.50730    0.19800    0.85610    1.000
    Ag31     Ag       0.19080    0.36950    0.40358    1.000
    Ag32     Ag       0.03442    0.15930    0.39068    1.000
    N91      N        0.23660    0.41800    0.48840    1.000
    N92      N        0.14980    0.27700    0.41510    1.000
    C181     C        0.27030    0.56200    0.53410    1.000
    H181     H        0.27950    0.62590    0.52680    1.000
    C182     C        0.13480    0.21500    0.37490    1.000
    H182     H        0.14520    0.18890    0.34580    1.000
    C183     C        0.10480    0.18100    0.36880    1.000
    H183     H        0.09710    0.12730    0.33930    1.000
    C184     C        0.25280    0.49700    0.48110    1.000
    H184     H        0.25370    0.51560    0.44040    1.000
    C185     C        0.12920    0.30700    0.44660    1.000
    H185     H        0.13640    0.36340    0.47440    1.000
    C186     C        0.25630    0.44300    0.59900    1.000
    H186     H        0.25700    0.41660    0.63860    1.000
    N93      N        0.08570    0.21700    0.40180    1.000
    C187     C        0.01210    0.81600    0.33090    1.000
    H187     H        0.02170    0.76660    0.31050    1.000
    C188     C        0.02680    0.91700    0.34320    1.000
    H188     H        0.04500    0.93200    0.32970    1.000
    N94      N        0.27310    0.52900    0.59400    1.000
    N95      N        0.01460    0.99400    0.37470    1.000
    C189     C        0.99130    0.96200    0.39800    1.000
    H189     H        0.98450    0.00770    0.42520    1.000
    C190     C        0.23700    0.39000    0.54420    1.000
    H190     H        0.22430    0.33310    0.55000    1.000
    N96      N        0.98580    0.78600    0.34590    1.000
    C191     C        0.09880    0.27200    0.44600    1.000
    H191     H        0.08920    0.28930    0.47840    1.000
    C192     C        0.97580    0.86100    0.38400    1.000
    H192     H        0.95880    0.84430    0.40060    1.000
