# CIF file generated by openbabel 3.1.0, see https://openbabel.org
data_I
_chemical_name_common 'ZIJVAR_clean'
_cell_length_a 13.2793
_cell_length_b 15.4414
_cell_length_c 18.463
_cell_angle_alpha 105.483
_cell_angle_beta 90
_cell_angle_gamma 115.467
_space_group_name_H-M_alt 'P 1'
_space_group_name_Hall 'P 1'
loop_
    _symmetry_equiv_pos_as_xyz
    x,y,z
loop_
    _atom_site_label
    _atom_site_type_symbol
    _atom_site_fract_x
    _atom_site_fract_y
    _atom_site_fract_z
    _atom_site_occupancy
    Co1      Co       0.24305    0.56610    0.96430    1.000
    Co2      Co       0.67695    0.43390    0.53570    1.000
    Co3      Co       0.61416    0.00000    0.75000    1.000
    H1       H        0.74520    0.25320    0.64110    1.000
    H2       H        0.01850    0.51660    0.71950    1.000
    H3       H        0.95360    0.30280    0.82010    1.000
    H4       H        0.03240    0.61340    0.02500    1.000
    H5       H        0.02900    0.77260    0.03500    1.000
    H6       H        0.32910    0.79560    0.99280    1.000
    H7       H        0.14030    0.96240    0.08850    1.000
    H8       H        0.34890    0.18560    0.00980    1.000
    H9       H        0.33200    0.91060    0.93100    1.000
    H10      H        0.48750    0.98020    0.88770    1.000
    H11      H        0.56020    0.20360    0.80610    1.000
    H12      H        0.43350    0.21420    0.89850    1.000
    H13      H        0.13260    0.07840    0.17910    1.000
    H14      H        0.10930    0.33800    0.22780    1.000
    H15      H        0.24680    0.25640    0.04470    1.000
    H16      H        0.22760    0.50520    0.21930    1.000
    H17      H        0.26010    0.62280    0.14630    1.000
    H18      H        0.19970    0.36440    0.00280    1.000
    H19      H        0.95820    0.02960    0.24750    1.000
    H20      H        0.94410    0.06260    0.38690    1.000
    H21      H        0.13620    0.31640    0.35560    1.000
    H22      H        0.49200    0.74680    0.85890    1.000
    H23      H        0.50190    0.48340    0.78050    1.000
    H24      H        0.65080    0.69720    0.67990    1.000
    H25      H        0.41900    0.38660    0.47500    1.000
    H26      H        0.25640    0.22740    0.46500    1.000
    H27      H        0.53350    0.20440    0.50720    1.000
    H28      H        0.17790    0.03760    0.41150    1.000
    H29      H        0.16330    0.81440    0.49020    1.000
    H30      H        0.42140    0.08940    0.56900    1.000
    H31      H        0.50730    0.01980    0.61230    1.000
    H32      H        0.35660    0.79640    0.69390    1.000
    H33      H        0.21930    0.78580    0.60150    1.000
    H34      H        0.05420    0.92160    0.32090    1.000
    H35      H        0.77130    0.66200    0.27220    1.000
    H36      H        0.99040    0.74360    0.45530    1.000
    H37      H        0.72240    0.49480    0.28070    1.000
    H38      H        0.63730    0.37720    0.35370    1.000
    H39      H        0.83530    0.63560    0.49720    1.000
    H40      H        0.92860    0.97040    0.25250    1.000
    H41      H        0.88150    0.93740    0.11310    1.000
    H42      H        0.81980    0.68360    0.14440    1.000
    C1       C        0.76367    0.15914    0.73640    1.000
    C2       C        0.83854    0.26128    0.73120    1.000
    C3       C        0.80976    0.29532    0.67560    1.000
    C4       C        0.87564    0.39048    0.67100    1.000
    C5       C        0.83727    0.42794    0.61490    1.000
    C6       C        0.97284    0.45268    0.72270    1.000
    C7       C        0.00191    0.42062    0.77850    1.000
    C8       C        0.93429    0.32478    0.78240    1.000
    C9       C        0.10316    0.48872    0.83590    1.000
    C10      C        0.09226    0.67052    0.01940    1.000
    C11      C        0.08968    0.75816    0.02520    1.000
    C12      C        0.25439    0.76938    0.00180    1.000
    C13      C        0.23356    0.92312    0.01280    1.000
    C14      C        0.19416    0.98592    0.05720    1.000
    C15      C        0.23508    0.08456    0.05520    1.000
    C16      C        0.31767    0.11874    0.00950    1.000
    C17      C        0.35355    0.05370    0.96360    1.000
    C18      C        0.31015    0.95490    0.96350    1.000
    C19      C        0.48972    0.03724    0.87830    1.000
    C20      C        0.52902    0.15904    0.83440    1.000
    C21      C        0.45926    0.16552    0.88500    1.000
    C22      C        0.19412    0.15404    0.10270    1.000
    C23      C        0.14438    0.13636    0.16690    1.000
    C24      C        0.11256    0.20392    0.21220    1.000
    C25      C        0.13026    0.29212    0.19650    1.000
    C26      C        0.18008    0.30936    0.13280    1.000
    C27      C        0.21231    0.24242    0.08690    1.000
    C28      C        0.22544    0.49108    0.16700    1.000
    C29      C        0.24335    0.55550    0.12610    1.000
    C30      C        0.21016    0.41452    0.04750    1.000
    C31      C        0.99320    0.09040    0.28570    1.000
    C32      C        0.98520    0.11040    0.36320    1.000
    C33      C        0.09080    0.24780    0.34570    1.000
    C34      C        0.60453    0.84086    0.76360    1.000
    C35      C        0.57726    0.73872    0.76880    1.000
    C36      C        0.51444    0.70468    0.82440    1.000
    C37      C        0.48516    0.60952    0.82900    1.000
    C38      C        0.40933    0.57206    0.88510    1.000
    C39      C        0.52016    0.54732    0.77730    1.000
    C40      C        0.58129    0.57938    0.72150    1.000
    C41      C        0.60951    0.67522    0.71760    1.000
    C42      C        0.61444    0.51128    0.66410    1.000
    C43      C        0.42174    0.32948    0.48060    1.000
    C44      C        0.33152    0.24184    0.47480    1.000
    C45      C        0.48501    0.23062    0.49820    1.000
    C46      C        0.31044    0.07688    0.48720    1.000
    C47      C        0.20824    0.01408    0.44280    1.000
    C48      C        0.15052    0.91544    0.44480    1.000
    C49      C        0.19893    0.88126    0.49050    1.000
    C50      C        0.29985    0.94630    0.53640    1.000
    C51      C        0.35525    0.04510    0.53650    1.000
    C52      C        0.45248    0.96276    0.62170    1.000
    C53      C        0.36998    0.84096    0.66560    1.000
    C54      C        0.29374    0.83448    0.61500    1.000
    C55      C        0.04008    0.84596    0.39730    1.000
    C56      C        0.00802    0.86364    0.33310    1.000
    C57      C        0.90864    0.79608    0.28780    1.000
    C58      C        0.83814    0.70788    0.30350    1.000
    C59      C        0.87072    0.69064    0.36720    1.000
    C60      C        0.96989    0.75758    0.41310    1.000
    C61      C        0.73436    0.50892    0.33300    1.000
    C62      C        0.68785    0.44450    0.37390    1.000
    C63      C        0.79564    0.58548    0.45250    1.000
    C64      C        0.90280    0.90960    0.21430    1.000
    C65      C        0.87480    0.88960    0.13680    1.000
    C66      C        0.84300    0.75220    0.15430    1.000
    N1       N        0.19578    0.67756    0.00400    1.000
    N2       N        0.19374    0.82148    0.01394    1.000
    N3       N        0.43312    0.08624    0.91329    1.000
    N4       N        0.54842    0.07824    0.82965    1.000
    N5       N        0.20330    0.40080    0.11584    1.000
    N6       N        0.23359    0.50778    0.05089    1.000
    N7       N        0.06812    0.18604    0.27978    1.000
    N8       N        0.04540    0.20760    0.39810    1.000
    N9       N        0.51822    0.32244    0.49600    1.000
    N10      N        0.37226    0.17852    0.48606    1.000
    N11      N        0.34688    0.91376    0.58671    1.000
    N12      N        0.47018    0.92176    0.67035    1.000
    N13      N        0.80250    0.59920    0.38416    1.000
    N14      N        0.72581    0.49222    0.44911    1.000
    N15      N        0.88208    0.81396    0.22022    1.000
    N16      N        0.83780    0.79240    0.10190    1.000
    O1       O        0.11329    0.45898    0.89296    1.000
    O2       O        0.17250    0.56800    0.82789    1.000
    O3       O        0.78898    0.12296    0.78214    1.000
    O4       O        0.67153    0.10966    0.69406    1.000
    O5       O        0.75427    0.36314    0.56519    1.000
    O6       O        0.88029    0.51818    0.62080    1.000
    O7       O        0.65431    0.54102    0.60704    1.000
    O8       O        0.60450    0.43200    0.67211    1.000
    O9       O        0.66602    0.87704    0.71786    1.000
    O10      O        0.56187    0.89034    0.80594    1.000
    O11      O        0.39113    0.63686    0.93481    1.000
    O12      O        0.36211    0.48182    0.87920    1.000
    Co4      Co       0.75695    0.43390    0.03570    1.000
    Co5      Co       0.32305    0.56610    0.46430    1.000
    Co6      Co       0.38584    0.00000    0.25000    1.000
    H43      H        0.25480    0.74680    0.35890    1.000
    H44      H        0.98150    0.48340    0.28050    1.000
    H45      H        0.04640    0.69720    0.17990    1.000
    H46      H        0.96760    0.38660    0.97500    1.000
    H47      H        0.97100    0.22740    0.96500    1.000
    H48      H        0.67090    0.20440    0.00720    1.000
    H49      H        0.85970    0.03760    0.91150    1.000
    H50      H        0.65110    0.81440    0.99020    1.000
    H51      H        0.66800    0.08940    0.06900    1.000
    H52      H        0.51250    0.01980    0.11230    1.000
    H53      H        0.43980    0.79640    0.19390    1.000
    H54      H        0.56650    0.78580    0.10150    1.000
    H55      H        0.86740    0.92160    0.82090    1.000
    H56      H        0.89070    0.66200    0.77220    1.000
    H57      H        0.75320    0.74360    0.95530    1.000
    H58      H        0.77240    0.49480    0.78070    1.000
    H59      H        0.73990    0.37720    0.85370    1.000
    H60      H        0.80030    0.63560    0.99720    1.000
    H61      H        0.04180    0.97040    0.75250    1.000
    H62      H        0.05590    0.93740    0.61310    1.000
    H63      H        0.86380    0.68360    0.64440    1.000
    H64      H        0.50800    0.25320    0.14110    1.000
    H65      H        0.49810    0.51660    0.21950    1.000
    H66      H        0.34920    0.30280    0.32010    1.000
    H67      H        0.58100    0.61340    0.52500    1.000
    H68      H        0.74360    0.77260    0.53500    1.000
    H69      H        0.46650    0.79560    0.49280    1.000
    H70      H        0.82210    0.96240    0.58850    1.000
    H71      H        0.83670    0.18560    0.50980    1.000
    H72      H        0.57860    0.91060    0.43100    1.000
    H73      H        0.49270    0.98020    0.38770    1.000
    H74      H        0.64340    0.20360    0.30610    1.000
    H75      H        0.78070    0.21420    0.39850    1.000
    H76      H        0.94580    0.07840    0.67910    1.000
    H77      H        0.22870    0.33800    0.72780    1.000
    H78      H        0.00960    0.25640    0.54470    1.000
    H79      H        0.27760    0.50520    0.71930    1.000
    H80      H        0.36270    0.62280    0.64630    1.000
    H81      H        0.16470    0.36440    0.50280    1.000
    H82      H        0.07140    0.02960    0.74750    1.000
    H83      H        0.11850    0.06260    0.88690    1.000
    H84      H        0.18020    0.31640    0.85560    1.000
    C67      C        0.23633    0.84086    0.26360    1.000
    C68      C        0.16146    0.73872    0.26880    1.000
    C69      C        0.19024    0.70468    0.32440    1.000
    C70      C        0.12436    0.60952    0.32900    1.000
    C71      C        0.16273    0.57206    0.38510    1.000
    C72      C        0.02716    0.54732    0.27730    1.000
    C73      C        0.99809    0.57938    0.22150    1.000
    C74      C        0.06571    0.67522    0.21760    1.000
    C75      C        0.89684    0.51128    0.16410    1.000
    C76      C        0.90774    0.32948    0.98060    1.000
    C77      C        0.91032    0.24184    0.97480    1.000
    C78      C        0.74561    0.23062    0.99820    1.000
    C79      C        0.76644    0.07688    0.98720    1.000
    C80      C        0.80584    0.01408    0.94280    1.000
    C81      C        0.76492    0.91544    0.94480    1.000
    C82      C        0.68233    0.88126    0.99050    1.000
    C83      C        0.64645    0.94630    0.03640    1.000
    C84      C        0.68985    0.04510    0.03650    1.000
    C85      C        0.51028    0.96276    0.12170    1.000
    C86      C        0.47098    0.84096    0.16560    1.000
    C87      C        0.54074    0.83448    0.11500    1.000
    C88      C        0.80588    0.84596    0.89730    1.000
    C89      C        0.85562    0.86364    0.83310    1.000
    C90      C        0.88744    0.79608    0.78780    1.000
    C91      C        0.86974    0.70788    0.80350    1.000
    C92      C        0.81992    0.69064    0.86720    1.000
    C93      C        0.78769    0.75758    0.91310    1.000
    C94      C        0.77456    0.50892    0.83300    1.000
    C95      C        0.75665    0.44450    0.87390    1.000
    C96      C        0.78984    0.58548    0.95250    1.000
    C97      C        0.00680    0.90960    0.71430    1.000
    C98      C        0.01480    0.88960    0.63680    1.000
    C99      C        0.90920    0.75220    0.65430    1.000
    C100     C        0.39547    0.15914    0.23640    1.000
    C101     C        0.42274    0.26128    0.23120    1.000
    C102     C        0.48556    0.29532    0.17560    1.000
    C103     C        0.51484    0.39048    0.17100    1.000
    C104     C        0.59067    0.42794    0.11490    1.000
    C105     C        0.47984    0.45268    0.22270    1.000
    C106     C        0.41871    0.42062    0.27850    1.000
    C107     C        0.39049    0.32478    0.28240    1.000
    C108     C        0.38556    0.48872    0.33590    1.000
    C109     C        0.57826    0.67052    0.51940    1.000
    C110     C        0.66848    0.75816    0.52520    1.000
    C111     C        0.51499    0.76938    0.50180    1.000
    C112     C        0.68956    0.92312    0.51280    1.000
    C113     C        0.79176    0.98592    0.55720    1.000
    C114     C        0.84948    0.08456    0.55520    1.000
    C115     C        0.80107    0.11874    0.50950    1.000
    C116     C        0.70015    0.05370    0.46360    1.000
    C117     C        0.64475    0.95490    0.46350    1.000
    C118     C        0.54752    0.03724    0.37830    1.000
    C119     C        0.63002    0.15904    0.33440    1.000
    C120     C        0.70626    0.16552    0.38500    1.000
    C121     C        0.95992    0.15404    0.60270    1.000
    C122     C        0.99198    0.13636    0.66690    1.000
    C123     C        0.09136    0.20392    0.71220    1.000
    C124     C        0.16186    0.29212    0.69650    1.000
    C125     C        0.12928    0.30936    0.63280    1.000
    C126     C        0.03011    0.24242    0.58690    1.000
    C127     C        0.26564    0.49108    0.66700    1.000
    C128     C        0.31215    0.55550    0.62610    1.000
    C129     C        0.20436    0.41452    0.54750    1.000
    C130     C        0.09720    0.09040    0.78570    1.000
    C131     C        0.12520    0.11040    0.86320    1.000
    C132     C        0.15700    0.24780    0.84570    1.000
    N17      N        0.80422    0.32244    0.99600    1.000
    N18      N        0.80626    0.17852    0.98606    1.000
    N19      N        0.56688    0.91376    0.08671    1.000
    N20      N        0.45158    0.92176    0.17035    1.000
    N21      N        0.79670    0.59920    0.88416    1.000
    N22      N        0.76641    0.49222    0.94911    1.000
    N23      N        0.93188    0.81396    0.72022    1.000
    N24      N        0.95460    0.79240    0.60190    1.000
    N25      N        0.48178    0.67756    0.50400    1.000
    N26      N        0.62774    0.82148    0.51394    1.000
    N27      N        0.65312    0.08624    0.41329    1.000
    N28      N        0.52982    0.07824    0.32965    1.000
    N29      N        0.19750    0.40080    0.61584    1.000
    N30      N        0.27419    0.50778    0.55089    1.000
    N31      N        0.11792    0.18604    0.77978    1.000
    N32      N        0.16220    0.20760    0.89810    1.000
    O13      O        0.88671    0.54102    0.10704    1.000
    O14      O        0.82750    0.43200    0.17211    1.000
    O15      O        0.21102    0.87704    0.21786    1.000
    O16      O        0.32847    0.89034    0.30594    1.000
    O17      O        0.24573    0.63686    0.43481    1.000
    O18      O        0.11971    0.48182    0.37920    1.000
    O19      O        0.34569    0.45898    0.39296    1.000
    O20      O        0.39550    0.56800    0.32789    1.000
    O21      O        0.33398    0.12296    0.28214    1.000
    O22      O        0.43813    0.10966    0.19406    1.000
    O23      O        0.60887    0.36314    0.06519    1.000
    O24      O        0.63789    0.51818    0.12080    1.000
