# CIF file generated by openbabel 3.1.0, see https://openbabel.org
data_I
_chemical_name_common 'ULUVUT_clean'
_cell_length_a 8.7796
_cell_length_b 10.0297
_cell_length_c 10.1561
_cell_angle_alpha 119.587
_cell_angle_beta 115.607
_cell_angle_gamma 90.0045
_space_group_name_H-M_alt 'P 1'
_space_group_name_Hall 'P 1'
loop_
    _symmetry_equiv_pos_as_xyz
    x,y,z
loop_
    _atom_site_label
    _atom_site_type_symbol
    _atom_site_fract_x
    _atom_site_fract_y
    _atom_site_fract_z
    _atom_site_occupancy
    Zn1      Zn       0.70419    0.88772    0.72458    1.000
    Zn2      Zn       0.47961    0.16314    0.27542    1.000
    H1       H        0.60300    0.60660    0.75400    1.000
    H2       H        0.53450    0.42790    0.65920    1.000
    H3       H        0.12460    0.30590    0.12200    1.000
    H4       H        0.98750    0.21940    0.94380    1.000
    H5       H        0.34900    0.85260    0.24600    1.000
    H6       H        0.37530    0.76870    0.34080    1.000
    H7       H        0.50260    0.18390    0.87800    1.000
    H8       H        0.54370    0.27560    0.05620    1.000
    C1       C        0.57360    0.52490    0.54400    1.000
    C2       C        0.09220    0.07550    0.99620    1.000
    C3       C        0.52960    0.98090    0.45600    1.000
    C4       C        0.59600    0.07930    0.00380    1.000
    N1       N        0.61120    0.65700    0.54720    1.000
    N2       N        0.59070    0.60440    0.38720    1.000
    N3       N        0.57010    0.52210    0.67260    1.000
    N4       N        0.53250    0.39690    0.38940    1.000
    N5       N        0.54380    0.45340    0.29440    1.000
    N6       N        0.02920    0.82440    0.89360    1.000
    N7       N        0.18280    0.88800    0.02560    1.000
    N8       N        0.96420    0.94010    0.86880    1.000
    N9       N        0.22840    0.04780    0.09500    1.000
    N10      N        0.08040    0.21760    0.01780    1.000
    N11      N        0.56400    0.10980    0.45280    1.000
    N12      N        0.70350    0.21720    0.61280    1.000
    N13      N        0.39750    0.84950    0.32740    1.000
    N14      N        0.64310    0.00750    0.61060    1.000
    N15      N        0.74940    0.15900    0.70560    1.000
    N16      N        0.63560    0.93080    0.10640    1.000
    N17      N        0.65720    0.86240    0.97440    1.000
    N18      N        0.59540    0.07130    0.13120    1.000
    N19      N        0.63340    0.95280    0.90500    1.000
    N20      N        0.56260    0.19980    0.98220    1.000
