# CIF file generated by openbabel 3.1.0, see https://openbabel.org
data_I
_chemical_name_common 'ic7014034-file001_clean'
_cell_length_a 17.0474
_cell_length_b 17.0474
_cell_length_c 32.588
_cell_angle_alpha 94.1421
_cell_angle_beta 94.1421
_cell_angle_gamma 107.555
_space_group_name_H-M_alt 'P 1'
_space_group_name_Hall 'P 1'
loop_
    _symmetry_equiv_pos_as_xyz
    x,y,z
loop_
    _atom_site_label
    _atom_site_type_symbol
    _atom_site_fract_x
    _atom_site_fract_y
    _atom_site_fract_z
    _atom_site_occupancy
    Zn1      Zn       0.22035    0.24579    0.37570    1.000
    Zn2      Zn       0.25312    0.23668    0.96701    1.000
    Zn3      Zn       0.23668    0.25312    0.46701    1.000
    Zn4      Zn       0.24579    0.22035    0.87570    1.000
    H1       H        0.08680    0.22640    0.23170    1.000
    H2       H        0.33410    0.25310    0.30980    1.000
    H3       H        0.26240    0.49260    0.98090    1.000
    H4       H        0.99110    0.24170    0.48200    1.000
    H5       H        0.84120    0.17160    0.85220    1.000
    H6       H        0.32080    0.24620    0.17400    1.000
    H7       H        0.96020    0.23040    0.35710    1.000
    H8       H        0.47950    0.29370    0.35910    1.000
    H9       H        0.26680    0.15420    0.60530    1.000
    H10      H        0.25630    0.72510    0.95920    1.000
    H11      H        0.22390    0.49790    0.36930    1.000
    H12      H        0.27400    0.74380    0.88180    1.000
    H13      H        0.98350    0.18070    0.85580    1.000
    H14      H        0.25090    0.33150    0.73950    1.000
    H15      H        0.21730    0.99990    0.47940    1.000
    H16      H        0.61470    0.30050    0.35680    1.000
    H17      H        0.20870    0.36590    0.60750    1.000
    H18      H        0.22200    0.63800    0.49730    1.000
    H19      H        0.25520    0.62980    0.97660    1.000
    H20      H        0.63800    0.22200    0.99730    1.000
    H21      H        0.21720    0.86200    0.47580    1.000
    H22      H        0.24070    0.50810    0.49440    1.000
    H23      H        0.35930    0.20950    0.03690    1.000
    H24      H        0.20660    0.62700    0.37240    1.000
    H25      H        0.72510    0.25630    0.45920    1.000
    H26      H        0.24070    0.82550    0.86090    1.000
    H27      H        0.74380    0.27400    0.38180    1.000
    H28      H        0.23040    0.96020    0.85710    1.000
    H29      H        0.30050    0.61470    0.85680    1.000
    H30      H        0.20950    0.35930    0.53690    1.000
    H31      H        0.82550    0.24070    0.36090    1.000
    H32      H        0.27520    0.15500    0.53550    1.000
    H33      H        0.36590    0.20870    0.10750    1.000
    H34      H        0.86170    0.25530    0.48650    1.000
    H35      H        0.49260    0.26240    0.48090    1.000
    H36      H        0.18070    0.98350    0.35580    1.000
    H37      H        0.33150    0.25090    0.23950    1.000
    H38      H        0.17160    0.84120    0.35220    1.000
    H39      H        0.22450    0.09410    0.80280    1.000
    H40      H        0.24170    0.99110    0.98200    1.000
    H41      H        0.50810    0.24070    0.99440    1.000
    H42      H        0.99990    0.21730    0.97940    1.000
    H43      H        0.62980    0.25520    0.47660    1.000
    H44      H        0.86200    0.21720    0.97580    1.000
    H45      H        0.24620    0.32080    0.67400    1.000
    H46      H        0.15300    0.23560    0.16790    1.000
    H47      H        0.29370    0.47950    0.85910    1.000
    H48      H        0.09410    0.22450    0.30280    1.000
    H49      H        0.49790    0.22390    0.86930    1.000
    H50      H        0.15420    0.26680    0.10530    1.000
    H51      H        0.23560    0.15300    0.66790    1.000
    H52      H        0.25530    0.86170    0.98650    1.000
    H53      H        0.62700    0.20660    0.87240    1.000
    H54      H        0.22640    0.08680    0.73170    1.000
    H55      H        0.15500    0.27520    0.03550    1.000
    H56      H        0.25310    0.33410    0.80980    1.000
    C1       C        0.27025    0.38359    0.92060    1.000
    C2       C        0.23325    0.53239    0.46959    1.000
    C3       C        0.20968    0.88652    0.45113    1.000
    C4       C        0.95774    0.24306    0.45760    1.000
    C5       C        0.23174    0.13786    0.74715    1.000
    C6       C        0.24681    0.28195    0.75205    1.000
    C7       C        0.52635    0.22345    0.89542    1.000
    C8       C        0.96848    0.20992    0.95338    1.000
    C9       C        0.26405    0.59875    0.95297    1.000
    C10      C        0.31742    0.22218    0.05127    1.000
    C11      C        0.83213    0.24967    0.42440    1.000
    C12      C        0.38359    0.27025    0.42060    1.000
    C13      C        0.13786    0.23174    0.24715    1.000
    C14      C        0.14306    0.23154    0.28939    1.000
    C15      C        0.20615    0.09403    0.41990    1.000
    C16      C        0.59875    0.26405    0.45297    1.000
    C17      C        0.25007    0.88153    0.96023    1.000
    C18      C        0.23154    0.14306    0.78939    1.000
    C19      C        0.21356    0.60264    0.39716    1.000
    C20      C        0.19885    0.84115    0.41363    1.000
    C21      C        0.23772    0.98768    0.91901    1.000
    C22      C        0.64514    0.21346    0.93540    1.000
    C23      C        0.51040    0.28660    0.38325    1.000
    C24      C        0.32217    0.22263    0.09316    1.000
    C25      C        0.60264    0.21356    0.89716    1.000
    C26      C        0.19717    0.25963    0.05031    1.000
    C27      C        0.20992    0.96848    0.45338    1.000
    C28      C        0.25782    0.19858    0.59171    1.000
    C29      C        0.28908    0.58892    0.88154    1.000
    C30      C        0.84115    0.19885    0.91363    1.000
    C31      C        0.51665    0.26615    0.45544    1.000
    C32      C        0.95850    0.18710    0.88047    1.000
    C33      C        0.24010    0.21088    0.72737    1.000
    C34      C        0.40447    0.24155    0.92880    1.000
    C35      C        0.21346    0.64514    0.43540    1.000
    C36      C        0.24155    0.40447    0.42880    1.000
    C37      C        0.24182    0.85998    0.88537    1.000
    C38      C        0.19858    0.25782    0.09171    1.000
    C39      C        0.60931    0.22281    0.97130    1.000
    C40      C        0.98768    0.23772    0.41901    1.000
    C41      C        0.07322    0.23442    0.41681    1.000
    C42      C        0.24325    0.26915    0.65986    1.000
    C43      C        0.24306    0.95774    0.95760    1.000
    C44      C        0.28660    0.51040    0.88325    1.000
    C45      C        0.18710    0.95850    0.38047    1.000
    C46      C        0.23285    0.48975    0.43105    1.000
    C47      C        0.93967    0.23573    0.38312    1.000
    C48      C        0.22281    0.60931    0.47130    1.000
    C49      C        0.26329    0.24331    0.11488    1.000
    C50      C        0.24770    0.28350    0.79388    1.000
    C51      C        0.26915    0.24325    0.15986    1.000
    C52      C        0.28350    0.24770    0.29388    1.000
    C53      C        0.58892    0.28908    0.38154    1.000
    C54      C        0.47300    0.27402    0.41933    1.000
    C55      C        0.27474    0.63266    0.91639    1.000
    C56      C        0.88153    0.25007    0.46023    1.000
    C57      C        0.22345    0.52635    0.39542    1.000
    C58      C        0.22263    0.32217    0.59316    1.000
    C59      C        0.87412    0.18388    0.87806    1.000
    C60      C        0.26615    0.51665    0.95544    1.000
    C61      C        0.23442    0.07322    0.91681    1.000
    C62      C        0.21088    0.24010    0.22737    1.000
    C63      C        0.23918    0.20482    0.68212    1.000
    C64      C        0.23573    0.93967    0.88312    1.000
    C65      C        0.25963    0.19717    0.55031    1.000
    C66      C        0.24967    0.83213    0.92440    1.000
    C67      C        0.24331    0.26329    0.61488    1.000
    C68      C        0.48975    0.23285    0.93105    1.000
    C69      C        0.53239    0.23325    0.96959    1.000
    C70      C        0.28195    0.24681    0.25205    1.000
    C71      C        0.88652    0.20968    0.95113    1.000
    C72      C        0.85998    0.24182    0.38537    1.000
    C73      C        0.18388    0.87412    0.37806    1.000
    C74      C        0.00340    0.19918    0.91747    1.000
    C75      C        0.27402    0.47300    0.91933    1.000
    C76      C        0.63266    0.27474    0.41639    1.000
    C77      C        0.22218    0.31742    0.55127    1.000
    C78      C        0.20482    0.23918    0.18212    1.000
    C79      C        0.09403    0.20615    0.91990    1.000
    C80      C        0.19918    0.00340    0.41747    1.000
    N1       N        0.75839    0.20011    0.90808    1.000
    N2       N        0.74666    0.25894    0.43538    1.000
    N3       N        0.24113    0.21591    0.81298    1.000
    N4       N        0.72164    0.26956    0.40539    1.000
    N5       N        0.25894    0.74666    0.93538    1.000
    N6       N        0.23909    0.25607    0.52970    1.000
    N7       N        0.72778    0.20742    0.94112    1.000
    N8       N        0.20742    0.72778    0.44112    1.000
    N9       N        0.21591    0.24113    0.31298    1.000
    N10      N        0.25607    0.23909    0.02970    1.000
    N11      N        0.26956    0.72164    0.90539    1.000
    N12      N        0.20011    0.75839    0.40808    1.000
    O1       O        0.34301    0.26745    0.38620    1.000
    O2       O        0.37637    0.25453    0.96214    1.000
    O3       O        0.22626    0.09838    0.88222    1.000
    O4       O        0.36712    0.23506    0.89397    1.000
    O5       O        0.11620    0.24016    0.45063    1.000
    O6       O        0.24016    0.11620    0.95063    1.000
    O7       O        0.35617    0.26961    0.45512    1.000
    O8       O        0.21620    0.13182    0.45514    1.000
    O9       O        0.23506    0.36712    0.39397    1.000
    O10      O        0.13182    0.21620    0.95514    1.000
    O11      O        0.20612    0.12684    0.38601    1.000
    O12      O        0.25453    0.37637    0.46214    1.000
    O13      O        0.26961    0.35617    0.95512    1.000
    O14      O        0.09838    0.22626    0.38222    1.000
    O15      O        0.26745    0.34301    0.88620    1.000
    O16      O        0.12684    0.20612    0.88601    1.000
    Zn5      Zn       0.76332    0.74688    0.53299    1.000
    Zn6      Zn       0.75421    0.77965    0.12430    1.000
    Zn7      Zn       0.77965    0.75421    0.62430    1.000
    Zn8      Zn       0.74688    0.76332    0.03299    1.000
    H57      H        0.76960    0.03980    0.14290    1.000
    H58      H        0.01650    0.81930    0.14420    1.000
    H59      H        0.74690    0.66590    0.19020    1.000
    H60      H        0.79340    0.37300    0.62760    1.000
    H61      H        0.73320    0.84580    0.39470    1.000
    H62      H        0.75930    0.17450    0.13910    1.000
    H63      H        0.84700    0.76440    0.83210    1.000
    H64      H        0.90590    0.77550    0.69720    1.000
    H65      H        0.37020    0.74480    0.52340    1.000
    H66      H        0.72480    0.84500    0.46450    1.000
    H67      H        0.03980    0.76960    0.64290    1.000
    H68      H        0.36200    0.77800    0.00270    1.000
    H69      H        0.84580    0.73320    0.89470    1.000
    H70      H        0.77610    0.50210    0.63070    1.000
    H71      H        0.67920    0.75380    0.82600    1.000
    H72      H        0.91320    0.77360    0.76830    1.000
    H73      H        0.77550    0.90590    0.19720    1.000
    H74      H        0.74470    0.13830    0.01350    1.000
    H75      H        0.76440    0.84700    0.33210    1.000
    H76      H        0.27490    0.74370    0.54080    1.000
    H77      H        0.79130    0.63410    0.39250    1.000
    H78      H        0.82840    0.15880    0.64780    1.000
    H79      H        0.17450    0.75930    0.63910    1.000
    H80      H        0.74480    0.37020    0.02340    1.000
    H81      H        0.78280    0.13800    0.52420    1.000
    H82      H        0.75830    0.00890    0.01800    1.000
    H83      H        0.15880    0.82840    0.14780    1.000
    H84      H        0.00890    0.75830    0.51800    1.000
    H85      H        0.81930    0.01650    0.64420    1.000
    H86      H        0.78270    0.00010    0.52060    1.000
    H87      H        0.64070    0.79050    0.96310    1.000
    H88      H        0.13830    0.74470    0.51350    1.000
    H89      H        0.66590    0.74690    0.69020    1.000
    H90      H        0.77360    0.91320    0.26830    1.000
    H91      H        0.66850    0.74910    0.76050    1.000
    H92      H        0.63410    0.79130    0.89250    1.000
    H93      H        0.79050    0.64070    0.46310    1.000
    H94      H        0.69950    0.38530    0.14320    1.000
    H95      H        0.72600    0.25620    0.11820    1.000
    H96      H        0.00010    0.78270    0.02060    1.000
    H97      H        0.13800    0.78280    0.02420    1.000
    H98      H        0.77800    0.36200    0.50270    1.000
    H99      H        0.84500    0.72480    0.96450    1.000
    H100     H        0.75380    0.67920    0.32600    1.000
    H101     H        0.70630    0.52050    0.14090    1.000
    H102     H        0.25620    0.72600    0.61820    1.000
    H103     H        0.38530    0.69950    0.64320    1.000
    H104     H        0.37300    0.79340    0.12760    1.000
    H105     H        0.50740    0.73760    0.51910    1.000
    H106     H        0.75930    0.49190    0.50560    1.000
    H107     H        0.73760    0.50740    0.01910    1.000
    H108     H        0.49190    0.75930    0.00560    1.000
    H109     H        0.74370    0.27490    0.04080    1.000
    H110     H        0.52050    0.70630    0.64090    1.000
    H111     H        0.50210    0.77610    0.13070    1.000
    H112     H        0.74910    0.66850    0.26050    1.000
    C81      C        0.75675    0.73085    0.34014    1.000
    C82      C        0.36734    0.72526    0.58361    1.000
    C83      C        0.99660    0.80082    0.08253    1.000
    C84      C        0.75230    0.71650    0.20612    1.000
    C85      C        0.76228    0.01232    0.08099    1.000
    C86      C        0.76846    0.85694    0.21061    1.000
    C87      C        0.76558    0.92678    0.08319    1.000
    C88      C        0.04150    0.81290    0.11953    1.000
    C89      C        0.75033    0.16787    0.07560    1.000
    C90      C        0.76675    0.46761    0.53041    1.000
    C91      C        0.35486    0.78654    0.06460    1.000
    C92      C        0.74993    0.11847    0.03977    1.000
    C93      C        0.80115    0.15885    0.58637    1.000
    C94      C        0.04226    0.75694    0.54240    1.000
    C95      C        0.06033    0.76427    0.61688    1.000
    C96      C        0.86214    0.76826    0.75285    1.000
    C97      C        0.76826    0.86214    0.25285    1.000
    C98      C        0.75694    0.04226    0.04240    1.000
    C99      C        0.47365    0.77655    0.10458    1.000
    C100     C        0.80082    0.99660    0.58253    1.000
    C101     C        0.79518    0.76082    0.81788    1.000
    C102     C        0.03152    0.79008    0.04662    1.000
    C103     C        0.72598    0.52700    0.08067    1.000
    C104     C        0.78654    0.35486    0.56460    1.000
    C105     C        0.71092    0.41108    0.11846    1.000
    C106     C        0.73671    0.75669    0.88512    1.000
    C107     C        0.80283    0.74037    0.94969    1.000
    C108     C        0.68258    0.77782    0.94873    1.000
    C109     C        0.75319    0.71805    0.24795    1.000
    C110     C        0.77655    0.47365    0.60458    1.000
    C111     C        0.12588    0.81612    0.12194    1.000
    C112     C        0.15885    0.80115    0.08637    1.000
    C113     C        0.79008    0.03152    0.54662    1.000
    C114     C        0.76427    0.06033    0.11688    1.000
    C115     C        0.51025    0.76715    0.06895    1.000
    C116     C        0.72526    0.36734    0.08361    1.000
    C117     C        0.73385    0.48335    0.04456    1.000
    C118     C        0.71340    0.48960    0.11675    1.000
    C119     C        0.76715    0.51025    0.56895    1.000
    C120     C        0.81290    0.04150    0.61953    1.000
    C121     C        0.16787    0.75033    0.57560    1.000
    C122     C        0.41108    0.71092    0.61846    1.000
    C123     C        0.79385    0.90597    0.58010    1.000
    C124     C        0.48960    0.71340    0.61675    1.000
    C125     C        0.11348    0.79032    0.04887    1.000
    C126     C        0.46761    0.76675    0.03041    1.000
    C127     C        0.77737    0.67783    0.40684    1.000
    C128     C        0.85694    0.76846    0.71061    1.000
    C129     C        0.90597    0.79385    0.08010    1.000
    C130     C        0.80142    0.74218    0.90829    1.000
    C131     C        0.59553    0.75845    0.07120    1.000
    C132     C        0.75818    0.14002    0.11463    1.000
    C133     C        0.01232    0.76228    0.58099    1.000
    C134     C        0.92678    0.76558    0.58319    1.000
    C135     C        0.77719    0.39069    0.52870    1.000
    C136     C        0.67783    0.77737    0.90684    1.000
    C137     C        0.40125    0.73595    0.54703    1.000
    C138     C        0.73085    0.75675    0.84014    1.000
    C139     C        0.48335    0.73385    0.54456    1.000
    C140     C        0.73595    0.40125    0.04703    1.000
    C141     C        0.81612    0.12588    0.62194    1.000
    C142     C        0.71650    0.75230    0.70612    1.000
    C143     C        0.77782    0.68258    0.44873    1.000
    C144     C        0.74037    0.80283    0.44969    1.000
    C145     C        0.78644    0.39736    0.60284    1.000
    C146     C        0.71805    0.75319    0.74795    1.000
    C147     C        0.72975    0.61641    0.07940    1.000
    C148     C        0.39736    0.78644    0.10284    1.000
    C149     C        0.52700    0.72598    0.58067    1.000
    C150     C        0.61641    0.72975    0.57940    1.000
    C151     C        0.75669    0.73671    0.38512    1.000
    C152     C        0.78912    0.75990    0.77263    1.000
    C153     C        0.74218    0.80142    0.40829    1.000
    C154     C        0.75845    0.59553    0.57120    1.000
    C155     C        0.11847    0.74993    0.53977    1.000
    C156     C        0.76082    0.79518    0.31788    1.000
    C157     C        0.14002    0.75818    0.61463    1.000
    C158     C        0.39069    0.77719    0.02870    1.000
    C159     C        0.79032    0.11348    0.54887    1.000
    C160     C        0.75990    0.78912    0.27263    1.000
    N13      N        0.79258    0.27222    0.55888    1.000
    N14      N        0.78409    0.75887    0.68702    1.000
    N15      N        0.79989    0.24161    0.59192    1.000
    N16      N        0.24161    0.79989    0.09192    1.000
    N17      N        0.73044    0.27836    0.09461    1.000
    N18      N        0.75887    0.78409    0.18702    1.000
    N19      N        0.76091    0.74393    0.47030    1.000
    N20      N        0.25334    0.74106    0.56462    1.000
    N21      N        0.74106    0.25334    0.06462    1.000
    N22      N        0.27222    0.79258    0.05888    1.000
    N23      N        0.74393    0.76091    0.97030    1.000
    N24      N        0.27836    0.73044    0.59461    1.000
    O17      O        0.76494    0.63288    0.60603    1.000
    O18      O        0.74547    0.62363    0.53786    1.000
    O19      O        0.64383    0.73039    0.54488    1.000
    O20      O        0.90162    0.77374    0.61778    1.000
    O21      O        0.73039    0.64383    0.04488    1.000
    O22      O        0.86818    0.78380    0.04486    1.000
    O23      O        0.63288    0.76494    0.10603    1.000
    O24      O        0.65699    0.73255    0.61380    1.000
    O25      O        0.77374    0.90162    0.11778    1.000
    O26      O        0.75984    0.88380    0.04937    1.000
    O27      O        0.62363    0.74547    0.03786    1.000
    O28      O        0.78380    0.86818    0.54486    1.000
    O29      O        0.79388    0.87316    0.61399    1.000
    O30      O        0.88380    0.75984    0.54937    1.000
    O31      O        0.87316    0.79388    0.11399    1.000
    O32      O        0.73255    0.65699    0.11380    1.000
    Zn9      Zn       0.46847    0.52217    0.70365    1.000
    Zn10     Zn       0.52217    0.46847    0.20365    1.000
    Zn11     Zn       0.53153    0.47783    0.29635    1.000
    Zn12     Zn       0.47783    0.53153    0.79635    1.000
    H113     H        0.55030    0.73670    0.31510    1.000
    H114     H        0.52430    0.22230    0.29900    1.000
    H115     H        0.34800    0.48600    0.55900    1.000
    H116     H        0.90940    0.46400    0.20450    1.000
    H117     H        0.51400    0.65200    0.94100    1.000
    H118     H        0.91810    0.48110    0.32830    1.000
    H119     H        0.08190    0.51890    0.67170    1.000
    H120     H        0.47570    0.77770    0.70100    1.000
    H121     H        0.26330    0.44970    0.18490    1.000
    H122     H        0.50740    0.21280    0.17620    1.000
    H123     H        0.86850    0.54390    0.81750    1.000
    H124     H        0.40620    0.46780    0.43040    1.000
    H125     H        0.44970    0.26330    0.68490    1.000
    H126     H        0.51890    0.08190    0.17170    1.000
    H127     H        0.46400    0.90940    0.70450    1.000
    H128     H        0.86460    0.55720    0.69440    1.000
    H129     H        0.64870    0.49630    0.37140    1.000
    H130     H        0.65200    0.51400    0.44100    1.000
    H131     H        0.50370    0.35130    0.12860    1.000
    H132     H        0.54390    0.86850    0.31750    1.000
    H133     H        0.27060    0.44140    0.30830    1.000
    H134     H        0.35130    0.50370    0.62860    1.000
    H135     H        0.48110    0.91810    0.82830    1.000
    H136     H        0.41080    0.46300    0.35900    1.000
    H137     H        0.13540    0.44280    0.30560    1.000
    H138     H        0.53220    0.59380    0.06960    1.000
    H139     H        0.77770    0.47570    0.20100    1.000
    H140     H        0.72940    0.55860    0.69170    1.000
    H141     H        0.55860    0.72940    0.19170    1.000
    H142     H        0.73670    0.55030    0.81510    1.000
    H143     H        0.13150    0.45610    0.18250    1.000
    H144     H        0.55720    0.86460    0.19440    1.000
    H145     H        0.58920    0.53700    0.64100    1.000
    H146     H        0.53600    0.09060    0.29550    1.000
    H147     H        0.21280    0.50740    0.67620    1.000
    H148     H        0.48600    0.34800    0.05900    1.000
    H149     H        0.78720    0.49260    0.32380    1.000
    H150     H        0.45610    0.13150    0.68250    1.000
    H151     H        0.53700    0.58920    0.14100    1.000
    H152     H        0.46300    0.41080    0.85900    1.000
    H153     H        0.46780    0.40620    0.93040    1.000
    H154     H        0.44280    0.13540    0.80560    1.000
    H155     H        0.44140    0.27060    0.80830    1.000
    H156     H        0.49260    0.78720    0.82380    1.000
    H157     H        0.22230    0.52430    0.79900    1.000
    H158     H        0.59380    0.53220    0.56960    1.000
    H159     H        0.09060    0.53600    0.79550    1.000
    H160     H        0.49630    0.64870    0.87140    1.000
    C161     C        0.23803    0.45035    0.20988    1.000
    C162     C        0.45035    0.23803    0.70988    1.000
    C163     C        0.23159    0.51465    0.73780    1.000
    C164     C        0.51324    0.18796    0.20092    1.000
    C165     C        0.50618    0.40134    0.11683    1.000
    C166     C        0.47177    0.92723    0.76681    1.000
    C167     C        0.75758    0.55524    0.71746    1.000
    C168     C        0.83764    0.55436    0.71899    1.000
    C169     C        0.19367    0.52313    0.77274    1.000
    C170     C        0.60032    0.50246    0.42496    1.000
    C171     C        0.54965    0.76197    0.29012    1.000
    C172     C        0.44865    0.28341    0.74687    1.000
    C173     C        0.54933    0.87927    0.25603    1.000
    C174     C        0.68263    0.48931    0.25978    1.000
    C175     C        0.47687    0.80633    0.72726    1.000
    C176     C        0.45756    0.47710    0.41900    1.000
    C177     C        0.55135    0.71659    0.25313    1.000
    C178     C        0.37190    0.45226    0.24792    1.000
    C179     C        0.54244    0.52290    0.58100    1.000
    C180     C        0.16236    0.44564    0.28101    1.000
    C181     C        0.54722    0.84018    0.29179    1.000
    C182     C        0.46088    0.47288    0.37626    1.000
    C183     C        0.52823    0.07277    0.23319    1.000
    C184     C        0.48003    0.88977    0.80193    1.000
    C185     C        0.28341    0.44865    0.24687    1.000
    C186     C        0.48931    0.68263    0.75978    1.000
    C187     C        0.55436    0.83764    0.21899    1.000
    C188     C        0.51465    0.23159    0.23780    1.000
    C189     C        0.53912    0.52712    0.62374    1.000
    C190     C        0.46834    0.50466    0.55507    1.000
    C191     C        0.12073    0.45067    0.24397    1.000
    C192     C        0.45226    0.37190    0.74792    1.000
    C193     C        0.81204    0.48676    0.29908    1.000
    C194     C        0.48676    0.81204    0.79908    1.000
    C195     C        0.47710    0.45756    0.91900    1.000
    C196     C        0.49540    0.46826    0.01015    1.000
    C197     C        0.62810    0.54774    0.75208    1.000
    C198     C        0.47000    0.88460    0.72924    1.000
    C199     C        0.47288    0.46088    0.87626    1.000
    C200     C        0.80633    0.47687    0.22726    1.000
    C201     C        0.15982    0.45278    0.20821    1.000
    C202     C        0.40134    0.50618    0.61683    1.000
    C203     C        0.45278    0.15982    0.70821    1.000
    C204     C        0.84018    0.54722    0.79179    1.000
    C205     C        0.07277    0.52823    0.73319    1.000
    C206     C        0.51997    0.11023    0.19807    1.000
    C207     C        0.18796    0.51324    0.70092    1.000
    C208     C        0.49382    0.59866    0.88317    1.000
    C209     C        0.51069    0.31737    0.24022    1.000
    C210     C        0.44564    0.16236    0.78101    1.000
    C211     C        0.39968    0.49754    0.57504    1.000
    C212     C        0.52290    0.54244    0.08100    1.000
    C213     C        0.88460    0.47000    0.22924    1.000
    C214     C        0.31737    0.51069    0.74022    1.000
    C215     C        0.71659    0.55135    0.75313    1.000
    C216     C        0.50460    0.53174    0.98985    1.000
    C217     C        0.53000    0.11540    0.27076    1.000
    C218     C        0.45067    0.12073    0.74397    1.000
    C219     C        0.44476    0.24242    0.78254    1.000
    C220     C        0.49754    0.39968    0.07504    1.000
    C221     C        0.59866    0.49382    0.38317    1.000
    C222     C        0.46826    0.49540    0.51015    1.000
    C223     C        0.49534    0.53166    0.94493    1.000
    C224     C        0.54774    0.62810    0.25208    1.000
    C225     C        0.55524    0.75758    0.21746    1.000
    C226     C        0.48535    0.76841    0.76220    1.000
    C227     C        0.50466    0.46834    0.05507    1.000
    C228     C        0.87927    0.54933    0.75603    1.000
    C229     C        0.50246    0.60032    0.92496    1.000
    C230     C        0.11023    0.51997    0.69807    1.000
    C231     C        0.52712    0.53912    0.12374    1.000
    C232     C        0.76197    0.54965    0.79012    1.000
    C233     C        0.76841    0.48535    0.26220    1.000
    C234     C        0.53174    0.50460    0.48985    1.000
    C235     C        0.52313    0.19367    0.27274    1.000
    C236     C        0.24242    0.44476    0.28254    1.000
    C237     C        0.53166    0.49534    0.44493    1.000
    C238     C        0.11540    0.53000    0.77076    1.000
    C239     C        0.92723    0.47177    0.26681    1.000
    C240     C        0.88977    0.48003    0.30193    1.000
    N25      N        0.96248    0.54524    0.76041    1.000
    N26      N        0.48215    0.53131    0.85813    1.000
    N27      N        0.45476    0.03752    0.73959    1.000
    N28      N        0.53428    0.99108    0.22802    1.000
    N29      N        0.51785    0.46869    0.14187    1.000
    N30      N        0.03752    0.45476    0.23959    1.000
    N31      N        0.53131    0.48215    0.35813    1.000
    N32      N        0.46869    0.51785    0.64187    1.000
    N33      N        0.00892    0.46572    0.27198    1.000
    N34      N        0.99108    0.53428    0.72802    1.000
    N35      N        0.54524    0.96248    0.26041    1.000
    N36      N        0.46572    0.00892    0.77198    1.000
    O33      O        0.45691    0.40389    0.71552    1.000
    O34      O        0.40389    0.45691    0.21552    1.000
    O35      O        0.59611    0.54309    0.78448    1.000
    O36      O        0.54309    0.59611    0.28448    1.000
    O37      O        0.51974    0.35630    0.27592    1.000
    O38      O        0.54931    0.59223    0.21662    1.000
    O39      O        0.45069    0.40777    0.78338    1.000
    O40      O        0.40777    0.45069    0.28338    1.000
    O41      O        0.49947    0.65347    0.79317    1.000
    O42      O        0.64370    0.48026    0.22408    1.000
    O43      O        0.35630    0.51974    0.77592    1.000
    O44      O        0.48026    0.64370    0.72408    1.000
    O45      O        0.59223    0.54931    0.71662    1.000
    O46      O        0.65347    0.49947    0.29317    1.000
    O47      O        0.50053    0.34653    0.20683    1.000
    O48      O        0.34653    0.50053    0.70683    1.000
