# CIF file generated by openbabel 3.1.0, see https://openbabel.org
data_I
_chemical_name_common 'image0'
_cell_length_a 11.6119
_cell_length_b 8.6116
_cell_length_c 8.8761
_cell_angle_alpha 90
_cell_angle_beta 90
_cell_angle_gamma 90
_space_group_name_H-M_alt 'P 1'
_space_group_name_Hall 'P 1'
loop_
    _symmetry_equiv_pos_as_xyz
    x,y,z
loop_
    _atom_site_label
    _atom_site_type_symbol
    _atom_site_fract_x
    _atom_site_fract_y
    _atom_site_fract_z
    _atom_site_occupancy
    N1       N        0.71980    0.58470    0.33950    1.000
    N2       N        0.62560    0.49300    0.34240    1.000
    N3       N        0.63060    0.38890    0.23670    1.000
    N4       N        0.72960    0.41050    0.16190    1.000
    C1       C        0.78220    0.53070    0.22570    1.000
    H1       H        0.85270    0.57120    0.19500    1.000
    N5       N        0.28020    0.41530    0.33950    1.000
    N6       N        0.37440    0.50700    0.34240    1.000
    N7       N        0.36940    0.61110    0.23670    1.000
    N8       N        0.27040    0.58950    0.16190    1.000
    C2       C        0.21780    0.46930    0.22570    1.000
    H2       H        0.14730    0.42880    0.19500    1.000
    N9       N        0.78020    0.08470    0.16050    1.000
    N10      N        0.87440    0.99300    0.15760    1.000
    N11      N        0.86940    0.88890    0.26330    1.000
    N12      N        0.77040    0.91050    0.33810    1.000
    C3       C        0.71780    0.03070    0.27430    1.000
    H3       H        0.64730    0.07120    0.30500    1.000
    N13      N        0.21980    0.91530    0.16050    1.000
    N14      N        0.12560    0.00700    0.15760    1.000
    N15      N        0.13060    0.11110    0.26330    1.000
    N16      N        0.22960    0.08950    0.33810    1.000
    C4       C        0.28220    0.96930    0.27430    1.000
    H4       H        0.35270    0.92880    0.30500    1.000
    N17      N        0.28020    0.41530    0.66050    1.000
    N18      N        0.37440    0.50700    0.65760    1.000
    N19      N        0.36940    0.61110    0.76330    1.000
    N20      N        0.27040    0.58950    0.83810    1.000
    C5       C        0.21780    0.46930    0.77430    1.000
    H5       H        0.14730    0.42880    0.80500    1.000
    N21      N        0.71980    0.58470    0.66050    1.000
    N22      N        0.62560    0.49300    0.65760    1.000
    N23      N        0.63060    0.38890    0.76330    1.000
    N24      N        0.72960    0.41050    0.83810    1.000
    C6       C        0.78220    0.53070    0.77430    1.000
    H6       H        0.85270    0.57120    0.80500    1.000
    N25      N        0.21980    0.91530    0.83950    1.000
    N26      N        0.12560    0.00700    0.84240    1.000
    N27      N        0.13060    0.11110    0.73670    1.000
    N28      N        0.22960    0.08950    0.66190    1.000
    C7       C        0.28220    0.96930    0.72570    1.000
    H7       H        0.35270    0.92880    0.69500    1.000
    N29      N        0.78020    0.08470    0.83950    1.000
    N30      N        0.87440    0.99300    0.84240    1.000
    N31      N        0.86940    0.88890    0.73670    1.000
    N32      N        0.77040    0.91050    0.66190    1.000
    C8       C        0.71780    0.03070    0.72570    1.000
    H8       H        0.64730    0.07120    0.69500    1.000
    Cu1      Cu       0.73167    0.75605    0.50000    1.000
    Cl1      Cl       0.52122    0.80114    0.50000    1.000
    Cu2      Cu       0.26833    0.24395    0.50000    1.000
    Cl2      Cl       0.47878    0.19886    0.50000    1.000
    Cu3      Cu       0.76833    0.25605    0.00000    1.000
    Cl3      Cl       0.97878    0.30114    0.00000    1.000
    Cu4      Cu       0.23167    0.74395    0.00000    1.000
    Cl4      Cl       0.02122    0.69886    0.00000    1.000
    Cu5      Cu       0.50000    0.50000    0.50000    1.000
    Cu6      Cu       0.00000    0.00000    0.00000    1.000
