# CIF file generated by openbabel 3.1.0, see https://openbabel.org
data_I
_chemical_name_common 'QEZZOL_clean'
_cell_length_a 11.5284
_cell_length_b 14.761
_cell_length_c 25.593
_cell_angle_alpha 90
_cell_angle_beta 90
_cell_angle_gamma 90
_space_group_name_H-M_alt 'P 1'
_space_group_name_Hall 'P 1'
loop_
    _symmetry_equiv_pos_as_xyz
    x,y,z
loop_
    _atom_site_label
    _atom_site_type_symbol
    _atom_site_fract_x
    _atom_site_fract_y
    _atom_site_fract_z
    _atom_site_occupancy
    Cu1      Cu       0.50000    0.50000    0.50000    1.000
    Cu2      Cu       0.50000    0.00000    0.00000    1.000
    Cu3      Cu       0.50000    0.50000    0.00000    1.000
    Cu4      Cu       0.50000    0.00000    0.50000    1.000
    Cu5      Cu       0.00000    0.50000    0.50000    1.000
    Cu6      Cu       0.00000    0.00000    0.00000    1.000
    Cu7      Cu       0.00000    0.50000    0.00000    1.000
    Cu8      Cu       0.00000    0.00000    0.50000    1.000
    Cu9      Cu       0.68506    0.51404    0.25000    1.000
    Cu10     Cu       0.68506    0.98596    0.25000    1.000
    Cu11     Cu       0.31494    0.48596    0.75000    1.000
    Cu12     Cu       0.31494    0.01404    0.75000    1.000
    H1       H        0.75010    0.49920    0.48460    1.000
    H2       H        0.57810    0.55350    0.61190    1.000
    H3       H        0.75120    0.57850    0.65440    1.000
    H4       H        0.92190    0.55560    0.61020    1.000
    H5       H        0.75010    0.00080    0.01540    1.000
    H6       H        0.57810    0.94650    0.88810    1.000
    H7       H        0.75120    0.92150    0.84560    1.000
    H8       H        0.92190    0.94440    0.88980    1.000
    H9       H        0.24990    0.50080    0.98460    1.000
    H10      H        0.42190    0.44650    0.11190    1.000
    H11      H        0.24880    0.42150    0.15440    1.000
    H12      H        0.07810    0.44440    0.11020    1.000
    H13      H        0.24990    0.99920    0.51540    1.000
    H14      H        0.42190    0.05350    0.38810    1.000
    H15      H        0.24880    0.07850    0.34560    1.000
    H16      H        0.07810    0.05560    0.38980    1.000
    H17      H        0.24990    0.50080    0.51540    1.000
    H18      H        0.42190    0.44650    0.38810    1.000
    H19      H        0.24880    0.42150    0.34560    1.000
    H20      H        0.07810    0.44440    0.38980    1.000
    H21      H        0.24990    0.99920    0.98460    1.000
    H22      H        0.42190    0.05350    0.11190    1.000
    H23      H        0.24880    0.07850    0.15440    1.000
    H24      H        0.07810    0.05560    0.11020    1.000
    H25      H        0.75010    0.49920    0.01540    1.000
    H26      H        0.57810    0.55350    0.88810    1.000
    H27      H        0.75120    0.57850    0.84560    1.000
    H28      H        0.92190    0.55560    0.88980    1.000
    H29      H        0.75010    0.00080    0.48460    1.000
    H30      H        0.57810    0.94650    0.61190    1.000
    H31      H        0.75120    0.92150    0.65440    1.000
    H32      H        0.92190    0.94440    0.61020    1.000
    W1       W        0.72330    0.25000    0.38944    1.000
    W2       W        0.72330    0.25000    0.11056    1.000
    W3       W        0.27670    0.75000    0.88944    1.000
    W4       W        0.27670    0.75000    0.61056    1.000
    W5       W        0.77261    0.75000    0.40051    1.000
    W6       W        0.77261    0.75000    0.09949    1.000
    W7       W        0.22739    0.25000    0.90051    1.000
    W8       W        0.22739    0.25000    0.59949    1.000
    C1       C        0.62600    0.34290    0.43910    1.000
    C2       C        0.84100    0.33900    0.43130    1.000
    C3       C        0.71040    0.36160    0.33450    1.000
    C4       C        0.63670    0.65570    0.42360    1.000
    C5       C        0.88360    0.64210    0.42750    1.000
    C6       C        0.73490    0.65780    0.33690    1.000
    C7       C        0.75020    0.51390    0.51990    1.000
    C8       C        0.64770    0.54650    0.59400    1.000
    C9       C        0.75040    0.56060    0.61960    1.000
    C10      C        0.85190    0.54770    0.59270    1.000
    C11      C        0.62600    0.15710    0.06090    1.000
    C12      C        0.84100    0.16100    0.06870    1.000
    C13      C        0.71040    0.13840    0.16550    1.000
    C14      C        0.63670    0.84430    0.07640    1.000
    C15      C        0.88360    0.85790    0.07250    1.000
    C16      C        0.73490    0.84220    0.16310    1.000
    C17      C        0.75020    0.98610    0.98010    1.000
    C18      C        0.64770    0.95350    0.90600    1.000
    C19      C        0.75040    0.93940    0.88040    1.000
    C20      C        0.85190    0.95230    0.90730    1.000
    C21      C        0.37400    0.65710    0.93910    1.000
    C22      C        0.15900    0.66100    0.93130    1.000
    C23      C        0.28960    0.63840    0.83450    1.000
    C24      C        0.36330    0.34430    0.92360    1.000
    C25      C        0.11640    0.35790    0.92750    1.000
    C26      C        0.26510    0.34220    0.83690    1.000
    C27      C        0.24980    0.48610    0.01990    1.000
    C28      C        0.35230    0.45350    0.09400    1.000
    C29      C        0.24960    0.43940    0.11960    1.000
    C30      C        0.14810    0.45230    0.09270    1.000
    C31      C        0.37400    0.84290    0.56090    1.000
    C32      C        0.15900    0.83900    0.56870    1.000
    C33      C        0.28960    0.86160    0.66550    1.000
    C34      C        0.36330    0.15570    0.57640    1.000
    C35      C        0.11640    0.14210    0.57250    1.000
    C36      C        0.26510    0.15780    0.66310    1.000
    C37      C        0.24980    0.01390    0.48010    1.000
    C38      C        0.35230    0.04650    0.40600    1.000
    C39      C        0.24960    0.06060    0.38040    1.000
    C40      C        0.14810    0.04770    0.40730    1.000
    C41      C        0.37400    0.65710    0.56090    1.000
    C42      C        0.15900    0.66100    0.56870    1.000
    C43      C        0.28960    0.63840    0.66550    1.000
    C44      C        0.36330    0.34430    0.57640    1.000
    C45      C        0.11640    0.35790    0.57250    1.000
    C46      C        0.26510    0.34220    0.66310    1.000
    C47      C        0.24980    0.48610    0.48010    1.000
    C48      C        0.35230    0.45350    0.40600    1.000
    C49      C        0.24960    0.43940    0.38040    1.000
    C50      C        0.14810    0.45230    0.40730    1.000
    C51      C        0.37400    0.84290    0.93910    1.000
    C52      C        0.15900    0.83900    0.93130    1.000
    C53      C        0.28960    0.86160    0.83450    1.000
    C54      C        0.36330    0.15570    0.92360    1.000
    C55      C        0.11640    0.14210    0.92750    1.000
    C56      C        0.26510    0.15780    0.83690    1.000
    C57      C        0.24980    0.01390    0.01990    1.000
    C58      C        0.35230    0.04650    0.09400    1.000
    C59      C        0.24960    0.06060    0.11960    1.000
    C60      C        0.14810    0.04770    0.09270    1.000
    C61      C        0.62600    0.34290    0.06090    1.000
    C62      C        0.84100    0.33900    0.06870    1.000
    C63      C        0.71040    0.36160    0.16550    1.000
    C64      C        0.63670    0.65570    0.07640    1.000
    C65      C        0.88360    0.64210    0.07250    1.000
    C66      C        0.73490    0.65780    0.16310    1.000
    C67      C        0.75020    0.51390    0.98010    1.000
    C68      C        0.64770    0.54650    0.90600    1.000
    C69      C        0.75040    0.56060    0.88040    1.000
    C70      C        0.85190    0.54770    0.90730    1.000
    C71      C        0.62600    0.15710    0.43910    1.000
    C72      C        0.84100    0.16100    0.43130    1.000
    C73      C        0.71040    0.13840    0.33450    1.000
    C74      C        0.63670    0.84430    0.42360    1.000
    C75      C        0.88360    0.85790    0.42750    1.000
    C76      C        0.73490    0.84220    0.33690    1.000
    C77      C        0.75020    0.98610    0.51990    1.000
    C78      C        0.64770    0.95350    0.59400    1.000
    C79      C        0.75040    0.93940    0.61960    1.000
    C80      C        0.85190    0.95230    0.59270    1.000
    C81      C        0.54710    0.25000    0.35880    1.000
    C82      C        0.88530    0.25000    0.34680    1.000
    C83      C        0.54710    0.25000    0.14120    1.000
    C84      C        0.88530    0.25000    0.15320    1.000
    C85      C        0.45290    0.75000    0.85880    1.000
    C86      C        0.11470    0.75000    0.84680    1.000
    C87      C        0.45290    0.75000    0.64120    1.000
    C88      C        0.11470    0.75000    0.65320    1.000
    C89      C        0.92530    0.75000    0.35080    1.000
    C90      C        0.76750    0.75000    0.48590    1.000
    C91      C        0.92530    0.75000    0.14920    1.000
    C92      C        0.76750    0.75000    0.01410    1.000
    C93      C        0.07470    0.25000    0.85080    1.000
    C94      C        0.23250    0.25000    0.98590    1.000
    C95      C        0.07470    0.25000    0.64920    1.000
    C96      C        0.23250    0.25000    0.51410    1.000
    N1       N        0.57680    0.39630    0.46200    1.000
    N2       N        0.90210    0.38580    0.45330    1.000
    N3       N        0.70180    0.41950    0.30420    1.000
    N4       N        0.57040    0.60240    0.43660    1.000
    N5       N        0.94180    0.58620    0.44600    1.000
    N6       N        0.71560    0.60720    0.30420    1.000
    N7       N        0.64620    0.52240    0.54270    1.000
    N8       N        0.85380    0.52410    0.54230    1.000
    N9       N        0.57680    0.10370    0.03800    1.000
    N10      N        0.90210    0.11420    0.04670    1.000
    N11      N        0.70180    0.08050    0.19580    1.000
    N12      N        0.57040    0.89760    0.06340    1.000
    N13      N        0.94180    0.91380    0.05400    1.000
    N14      N        0.71560    0.89280    0.19580    1.000
    N15      N        0.64620    0.97760    0.95730    1.000
    N16      N        0.85380    0.97590    0.95770    1.000
    N17      N        0.42320    0.60370    0.96200    1.000
    N18      N        0.09790    0.61420    0.95330    1.000
    N19      N        0.29820    0.58050    0.80420    1.000
    N20      N        0.42960    0.39760    0.93660    1.000
    N21      N        0.05820    0.41380    0.94600    1.000
    N22      N        0.28440    0.39280    0.80420    1.000
    N23      N        0.35380    0.47760    0.04270    1.000
    N24      N        0.14620    0.47590    0.04230    1.000
    N25      N        0.42320    0.89630    0.53800    1.000
    N26      N        0.09790    0.88580    0.54670    1.000
    N27      N        0.29820    0.91950    0.69580    1.000
    N28      N        0.42960    0.10240    0.56340    1.000
    N29      N        0.05820    0.08620    0.55400    1.000
    N30      N        0.28440    0.10720    0.69580    1.000
    N31      N        0.35380    0.02240    0.45730    1.000
    N32      N        0.14620    0.02410    0.45770    1.000
    N33      N        0.42320    0.60370    0.53800    1.000
    N34      N        0.09790    0.61420    0.54670    1.000
    N35      N        0.29820    0.58050    0.69580    1.000
    N36      N        0.42960    0.39760    0.56340    1.000
    N37      N        0.05820    0.41380    0.55400    1.000
    N38      N        0.28440    0.39280    0.69580    1.000
    N39      N        0.35380    0.47760    0.45730    1.000
    N40      N        0.14620    0.47590    0.45770    1.000
    N41      N        0.42320    0.89630    0.96200    1.000
    N42      N        0.09790    0.88580    0.95330    1.000
    N43      N        0.29820    0.91950    0.80420    1.000
    N44      N        0.42960    0.10240    0.93660    1.000
    N45      N        0.05820    0.08620    0.94600    1.000
    N46      N        0.28440    0.10720    0.80420    1.000
    N47      N        0.35380    0.02240    0.04270    1.000
    N48      N        0.14620    0.02410    0.04230    1.000
    N49      N        0.57680    0.39630    0.03800    1.000
    N50      N        0.90210    0.38580    0.04670    1.000
    N51      N        0.70180    0.41950    0.19580    1.000
    N52      N        0.57040    0.60240    0.06340    1.000
    N53      N        0.94180    0.58620    0.05400    1.000
    N54      N        0.71560    0.60720    0.19580    1.000
    N55      N        0.64620    0.52240    0.95730    1.000
    N56      N        0.85380    0.52410    0.95770    1.000
    N57      N        0.57680    0.10370    0.46200    1.000
    N58      N        0.90210    0.11420    0.45330    1.000
    N59      N        0.70180    0.08050    0.30420    1.000
    N60      N        0.57040    0.89760    0.43660    1.000
    N61      N        0.94180    0.91380    0.44600    1.000
    N62      N        0.71560    0.89280    0.30420    1.000
    N63      N        0.64620    0.97760    0.54270    1.000
    N64      N        0.85380    0.97590    0.54230    1.000
    N65      N        0.45470    0.25000    0.34160    1.000
    N66      N        0.97210    0.25000    0.32400    1.000
    N67      N        0.45470    0.25000    0.15840    1.000
    N68      N        0.97210    0.25000    0.17600    1.000
    N69      N        0.54530    0.75000    0.84160    1.000
    N70      N        0.02790    0.75000    0.82400    1.000
    N71      N        0.54530    0.75000    0.65840    1.000
    N72      N        0.02790    0.75000    0.67600    1.000
    N73      N        0.00580    0.75000    0.32330    1.000
    N74      N        0.76610    0.75000    0.53040    1.000
    N75      N        0.00580    0.75000    0.17670    1.000
    N76      N        0.76610    0.75000    0.96960    1.000
    N77      N        0.99420    0.25000    0.82330    1.000
    N78      N        0.23390    0.25000    0.03040    1.000
    N79      N        0.99420    0.25000    0.67670    1.000
    N80      N        0.23390    0.25000    0.46960    1.000
