# CIF file generated by openbabel 3.1.0, see https://openbabel.org
data_I
_chemical_name_common 'image0'
_cell_length_a 11.406
_cell_length_b 14.981
_cell_length_c 16.867
_cell_angle_alpha 90
_cell_angle_beta 90
_cell_angle_gamma 90
_space_group_name_H-M_alt 'P 1'
_space_group_name_Hall 'P 1'
loop_
    _symmetry_equiv_pos_as_xyz
    x,y,z
loop_
    _atom_site_label
    _atom_site_type_symbol
    _atom_site_fract_x
    _atom_site_fract_y
    _atom_site_fract_z
    _atom_site_occupancy
    N1       N        0.34030    0.44320    0.64912    1.000
    N2       N        0.45080    0.43230    0.61869    1.000
    H1       H        0.51340    0.44970    0.64250    1.000
    N3       N        0.17920    0.30830    0.34588    1.000
    N4       N        0.24020    0.23390    0.36515    1.000
    H2       H        0.23730    0.18520    0.33820    1.000
    C1       C        0.13990    0.39970    0.61010    1.000
    H3       H        0.12620    0.39280    0.66590    1.000
    H4       H        0.10880    0.34900    0.58230    1.000
    H5       H        0.10210    0.45300    0.59170    1.000
    C2       C        0.26980    0.40620    0.59510    1.000
    C3       C        0.33390    0.37300    0.52990    1.000
    C4       C        0.45130    0.39100    0.54700    1.000
    C5       C        0.56110    0.37190    0.50230    1.000
    H6       H        0.61350    0.42180    0.50680    1.000
    H7       H        0.54260    0.36190    0.44750    1.000
    H8       H        0.59790    0.31960    0.52380    1.000
    C6       C        0.38130    0.17080    0.46260    1.000
    H9       H        0.34470    0.11420    0.45250    1.000
    H10      H        0.39110    0.17860    0.51870    1.000
    H11      H        0.45650    0.17250    0.43710    1.000
    C7       C        0.30560    0.24400    0.43060    1.000
    C8       C        0.28590    0.32980    0.45740    1.000
    C9       C        0.20750    0.36830    0.40130    1.000
    C10      C        0.16270    0.46160    0.39760    1.000
    H12      H        0.22520    0.50100    0.38250    1.000
    H13      H        0.13320    0.47870    0.44870    1.000
    H14      H        0.10080    0.46510    0.35920    1.000
    N5       N        0.15970    0.94320    0.35088    1.000
    N6       N        0.04920    0.93230    0.38131    1.000
    H15      H        0.98660    0.94970    0.35750    1.000
    N7       N        0.32080    0.80830    0.65412    1.000
    N8       N        0.25980    0.73390    0.63485    1.000
    H16      H        0.26270    0.68520    0.66180    1.000
    C11      C        0.36010    0.89970    0.38990    1.000
    H17      H        0.37380    0.89280    0.33410    1.000
    H18      H        0.39120    0.84900    0.41770    1.000
    H19      H        0.39790    0.95300    0.40830    1.000
    C12      C        0.23020    0.90620    0.40490    1.000
    C13      C        0.16610    0.87300    0.47010    1.000
    C14      C        0.04870    0.89100    0.45300    1.000
    C15      C        0.93890    0.87190    0.49770    1.000
    H20      H        0.88650    0.92180    0.49320    1.000
    H21      H        0.95740    0.86190    0.55250    1.000
    H22      H        0.90210    0.81960    0.47620    1.000
    C16      C        0.11870    0.67080    0.53740    1.000
    H23      H        0.15530    0.61420    0.54750    1.000
    H24      H        0.10890    0.67860    0.48130    1.000
    H25      H        0.04350    0.67250    0.56290    1.000
    C17      C        0.19440    0.74400    0.56940    1.000
    C18      C        0.21410    0.82980    0.54260    1.000
    C19      C        0.29250    0.86830    0.59870    1.000
    C20      C        0.33730    0.96160    0.60240    1.000
    H26      H        0.27480    0.00100    0.61750    1.000
    H27      H        0.36680    0.97870    0.55130    1.000
    H28      H        0.39920    0.96510    0.64080    1.000
    N9       N        0.65970    0.55680    0.14912    1.000
    N10      N        0.54920    0.56770    0.11869    1.000
    H29      H        0.48660    0.55030    0.14250    1.000
    N11      N        0.82080    0.69170    0.84588    1.000
    N12      N        0.75980    0.76610    0.86515    1.000
    H30      H        0.76270    0.81480    0.83820    1.000
    C21      C        0.86010    0.60030    0.11010    1.000
    H31      H        0.87380    0.60720    0.16590    1.000
    H32      H        0.89120    0.65100    0.08230    1.000
    H33      H        0.89790    0.54700    0.09170    1.000
    C22      C        0.73020    0.59380    0.09510    1.000
    C23      C        0.66610    0.62700    0.02990    1.000
    C24      C        0.54870    0.60900    0.04700    1.000
    C25      C        0.43890    0.62810    0.00230    1.000
    H34      H        0.38650    0.57820    0.00680    1.000
    H35      H        0.45740    0.63810    0.94750    1.000
    H36      H        0.40210    0.68040    0.02380    1.000
    C26      C        0.61870    0.82920    0.96260    1.000
    H37      H        0.65530    0.88580    0.95250    1.000
    H38      H        0.60890    0.82140    0.01870    1.000
    H39      H        0.54350    0.82750    0.93710    1.000
    C27      C        0.69440    0.75600    0.93060    1.000
    C28      C        0.71410    0.67020    0.95740    1.000
    C29      C        0.79250    0.63170    0.90130    1.000
    C30      C        0.83730    0.53840    0.89760    1.000
    H40      H        0.77480    0.49900    0.88250    1.000
    H41      H        0.86680    0.52130    0.94870    1.000
    H42      H        0.89920    0.53490    0.85920    1.000
    N13      N        0.84030    0.05680    0.85088    1.000
    N14      N        0.95080    0.06770    0.88131    1.000
    H43      H        0.01340    0.05030    0.85750    1.000
    N15      N        0.67920    0.19170    0.15412    1.000
    N16      N        0.74020    0.26610    0.13485    1.000
    H44      H        0.73730    0.31480    0.16180    1.000
    C31      C        0.63990    0.10030    0.88990    1.000
    H45      H        0.62620    0.10720    0.83410    1.000
    H46      H        0.60880    0.15100    0.91770    1.000
    H47      H        0.60210    0.04700    0.90830    1.000
    C32      C        0.76980    0.09380    0.90490    1.000
    C33      C        0.83390    0.12700    0.97010    1.000
    C34      C        0.95130    0.10900    0.95300    1.000
    C35      C        0.06110    0.12810    0.99770    1.000
    H48      H        0.11350    0.07820    0.99320    1.000
    H49      H        0.04260    0.13810    0.05250    1.000
    H50      H        0.09790    0.18040    0.97620    1.000
    C36      C        0.88130    0.32920    0.03740    1.000
    H51      H        0.84470    0.38580    0.04750    1.000
    H52      H        0.89110    0.32140    0.98130    1.000
    H53      H        0.95650    0.32750    0.06290    1.000
    C37      C        0.80560    0.25600    0.06940    1.000
    C38      C        0.78590    0.17020    0.04260    1.000
    C39      C        0.70750    0.13170    0.09870    1.000
    C40      C        0.66270    0.03840    0.10240    1.000
    H54      H        0.72520    0.99900    0.11750    1.000
    H55      H        0.63320    0.02130    0.05130    1.000
    H56      H        0.60080    0.03490    0.14080    1.000
    N17      N        0.65970    0.55680    0.35088    1.000
    N18      N        0.54920    0.56770    0.38131    1.000
    H57      H        0.48660    0.55030    0.35750    1.000
    N19      N        0.82080    0.69170    0.65412    1.000
    N20      N        0.75980    0.76610    0.63485    1.000
    H58      H        0.76270    0.81480    0.66180    1.000
    C41      C        0.86010    0.60030    0.38990    1.000
    H59      H        0.87380    0.60720    0.33410    1.000
    H60      H        0.89120    0.65100    0.41770    1.000
    H61      H        0.89790    0.54700    0.40830    1.000
    C42      C        0.73020    0.59380    0.40490    1.000
    C43      C        0.66610    0.62700    0.47010    1.000
    C44      C        0.54870    0.60900    0.45300    1.000
    C45      C        0.43890    0.62810    0.49770    1.000
    H62      H        0.38650    0.57820    0.49320    1.000
    H63      H        0.45740    0.63810    0.55250    1.000
    H64      H        0.40210    0.68040    0.47620    1.000
    C46      C        0.61870    0.82920    0.53740    1.000
    H65      H        0.65530    0.88580    0.54750    1.000
    H66      H        0.60890    0.82140    0.48130    1.000
    H67      H        0.54350    0.82750    0.56290    1.000
    C47      C        0.69440    0.75600    0.56940    1.000
    C48      C        0.71410    0.67020    0.54260    1.000
    C49      C        0.79250    0.63170    0.59870    1.000
    C50      C        0.83730    0.53840    0.60240    1.000
    H68      H        0.77480    0.49900    0.61750    1.000
    H69      H        0.86680    0.52130    0.55130    1.000
    H70      H        0.89920    0.53490    0.64080    1.000
    N21      N        0.84030    0.05680    0.64912    1.000
    N22      N        0.95080    0.06770    0.61869    1.000
    H71      H        0.01340    0.05030    0.64250    1.000
    N23      N        0.67920    0.19170    0.34588    1.000
    N24      N        0.74020    0.26610    0.36515    1.000
    H72      H        0.73730    0.31480    0.33820    1.000
    C51      C        0.63990    0.10030    0.61010    1.000
    H73      H        0.62620    0.10720    0.66590    1.000
    H74      H        0.60880    0.15100    0.58230    1.000
    H75      H        0.60210    0.04700    0.59170    1.000
    C52      C        0.76980    0.09380    0.59510    1.000
    C53      C        0.83390    0.12700    0.52990    1.000
    C54      C        0.95130    0.10900    0.54700    1.000
    C55      C        0.06110    0.12810    0.50230    1.000
    H76      H        0.11350    0.07820    0.50680    1.000
    H77      H        0.04260    0.13810    0.44750    1.000
    H78      H        0.09790    0.18040    0.52380    1.000
    C56      C        0.88130    0.32920    0.46260    1.000
    H79      H        0.84470    0.38580    0.45250    1.000
    H80      H        0.89110    0.32140    0.51870    1.000
    H81      H        0.95650    0.32750    0.43710    1.000
    C57      C        0.80560    0.25600    0.43060    1.000
    C58      C        0.78590    0.17020    0.45740    1.000
    C59      C        0.70750    0.13170    0.40130    1.000
    C60      C        0.66270    0.03840    0.39760    1.000
    H82      H        0.72520    0.99900    0.38250    1.000
    H83      H        0.63320    0.02130    0.44870    1.000
    H84      H        0.60080    0.03490    0.35920    1.000
    N25      N        0.34030    0.44320    0.85088    1.000
    N26      N        0.45080    0.43230    0.88131    1.000
    H85      H        0.51340    0.44970    0.85750    1.000
    N27      N        0.17920    0.30830    0.15412    1.000
    N28      N        0.24020    0.23390    0.13485    1.000
    H86      H        0.23730    0.18520    0.16180    1.000
    C61      C        0.13990    0.39970    0.88990    1.000
    H87      H        0.12620    0.39280    0.83410    1.000
    H88      H        0.10880    0.34900    0.91770    1.000
    H89      H        0.10210    0.45300    0.90830    1.000
    C62      C        0.26980    0.40620    0.90490    1.000
    C63      C        0.33390    0.37300    0.97010    1.000
    C64      C        0.45130    0.39100    0.95300    1.000
    C65      C        0.56110    0.37190    0.99770    1.000
    H90      H        0.61350    0.42180    0.99320    1.000
    H91      H        0.54260    0.36190    0.05250    1.000
    H92      H        0.59790    0.31960    0.97620    1.000
    C66      C        0.38130    0.17080    0.03740    1.000
    H93      H        0.34470    0.11420    0.04750    1.000
    H94      H        0.39110    0.17860    0.98130    1.000
    H95      H        0.45650    0.17250    0.06290    1.000
    C67      C        0.30560    0.24400    0.06940    1.000
    C68      C        0.28590    0.32980    0.04260    1.000
    C69      C        0.20750    0.36830    0.09870    1.000
    C70      C        0.16270    0.46160    0.10240    1.000
    H96      H        0.22520    0.50100    0.11750    1.000
    H97      H        0.13320    0.47870    0.05130    1.000
    H98      H        0.10080    0.46510    0.14080    1.000
    N29      N        0.15970    0.94320    0.14912    1.000
    N30      N        0.04920    0.93230    0.11869    1.000
    H99      H        0.98660    0.94970    0.14250    1.000
    N31      N        0.32080    0.80830    0.84588    1.000
    N32      N        0.25980    0.73390    0.86515    1.000
    H100     H        0.26270    0.68520    0.83820    1.000
    C71      C        0.36010    0.89970    0.11010    1.000
    H101     H        0.37380    0.89280    0.16590    1.000
    H102     H        0.39120    0.84900    0.08230    1.000
    H103     H        0.39790    0.95300    0.09170    1.000
    C72      C        0.23020    0.90620    0.09510    1.000
    C73      C        0.16610    0.87300    0.02990    1.000
    C74      C        0.04870    0.89100    0.04700    1.000
    C75      C        0.93890    0.87190    0.00230    1.000
    H104     H        0.88650    0.92180    0.00680    1.000
    H105     H        0.95740    0.86190    0.94750    1.000
    H106     H        0.90210    0.81960    0.02380    1.000
    C76      C        0.11870    0.67080    0.96260    1.000
    H107     H        0.15530    0.61420    0.95250    1.000
    H108     H        0.10890    0.67860    0.01870    1.000
    H109     H        0.04350    0.67250    0.93710    1.000
    C77      C        0.19440    0.74400    0.93060    1.000
    C78      C        0.21410    0.82980    0.95740    1.000
    C79      C        0.29250    0.86830    0.90130    1.000
    C80      C        0.33730    0.96160    0.89760    1.000
    H110     H        0.27480    0.00100    0.88250    1.000
    H111     H        0.36680    0.97870    0.94870    1.000
    H112     H        0.39920    0.96510    0.85920    1.000
    I1       I        0.50293    0.62500    0.75000    1.000
    Cu1      Cu       0.31122    0.51716    0.75000    1.000
    Cu2      Cu       0.43060    0.81664    0.75000    1.000
    N33      N        0.15900    0.57880    0.75000    1.000
    C81      C        0.07180    0.61380    0.75000    1.000
    I2       I        0.99707    0.12500    0.25000    1.000
    Cu3      Cu       0.18878    0.01716    0.25000    1.000
    Cu4      Cu       0.06940    0.31664    0.25000    1.000
    N34      N        0.34100    0.07880    0.25000    1.000
    C82      C        0.42820    0.11380    0.25000    1.000
    I3       I        0.49707    0.37500    0.25000    1.000
    Cu5      Cu       0.68878    0.48284    0.25000    1.000
    Cu6      Cu       0.56940    0.18336    0.25000    1.000
    N35      N        0.84100    0.42120    0.25000    1.000
    C83      C        0.92820    0.38620    0.25000    1.000
    I4       I        0.00293    0.87500    0.75000    1.000
    Cu7      Cu       0.81122    0.98284    0.75000    1.000
    Cu8      Cu       0.93060    0.68336    0.75000    1.000
    N36      N        0.65900    0.92120    0.75000    1.000
    C84      C        0.57180    0.88620    0.75000    1.000
