# CIF file generated by openbabel 3.1.0, see https://openbabel.org
data_I
_chemical_name_common 'FIFPOA_clean'
_cell_length_a 4.8105
_cell_length_b 7.6762
_cell_length_c 17.8448
_cell_angle_alpha 90
_cell_angle_beta 90
_cell_angle_gamma 90
_space_group_name_H-M_alt 'P 1'
_space_group_name_Hall 'P 1'
loop_
    _symmetry_equiv_pos_as_xyz
    x,y,z
loop_
    _atom_site_label
    _atom_site_type_symbol
    _atom_site_fract_x
    _atom_site_fract_y
    _atom_site_fract_z
    _atom_site_occupancy
    Eu1      Eu       0.97021    0.95735    0.28904    1.000
    Eu2      Eu       0.97021    0.04265    0.71096    1.000
    Eu3      Eu       0.97021    0.45735    0.21096    1.000
    Eu4      Eu       0.97021    0.54265    0.78904    1.000
    C1       C        0.47800    0.15950    0.27720    1.000
    C2       C        0.09690    0.53350    0.46920    1.000
    C3       C        0.09330    0.59560    0.39310    1.000
    C4       C        0.47800    0.84050    0.72280    1.000
    C5       C        0.09690    0.46650    0.53080    1.000
    C6       C        0.09330    0.40440    0.60690    1.000
    C7       C        0.47800    0.65950    0.22280    1.000
    C8       C        0.09690    0.03350    0.03080    1.000
    C9       C        0.09330    0.09560    0.10690    1.000
    C10      C        0.47800    0.34050    0.77720    1.000
    C11      C        0.09690    0.96650    0.96920    1.000
    C12      C        0.09330    0.90440    0.89310    1.000
    O1       O        0.23300    0.19820    0.23930    1.000
    O2       O        0.46330    0.01730    0.31148    1.000
    O3       O        0.07010    0.75520    0.38545    1.000
    O4       O        0.09490    0.47950    0.34446    1.000
    O5       O        0.70400    0.24570    0.27748    1.000
    O6       O        0.23300    0.80180    0.76070    1.000
    O7       O        0.46330    0.98270    0.68852    1.000
    O8       O        0.07010    0.24480    0.61455    1.000
    O9       O        0.09490    0.52050    0.65554    1.000
    O10      O        0.70400    0.75430    0.72252    1.000
    O11      O        0.23300    0.69820    0.26070    1.000
    O12      O        0.46330    0.51730    0.18852    1.000
    O13      O        0.07010    0.25520    0.11455    1.000
    O14      O        0.09490    0.97950    0.15554    1.000
    O15      O        0.70400    0.74570    0.22252    1.000
    O16      O        0.23300    0.30180    0.73930    1.000
    O17      O        0.46330    0.48270    0.81148    1.000
    O18      O        0.07010    0.74480    0.88545    1.000
    O19      O        0.09490    0.02050    0.84446    1.000
    O20      O        0.70400    0.25430    0.77748    1.000
