# CIF file generated by openbabel 3.1.0, see https://openbabel.org
data_I
_chemical_name_common 'image0'
_cell_length_a 15.512
_cell_length_b 13.7953
_cell_length_c 13.0199
_cell_angle_alpha 90
_cell_angle_beta 90
_cell_angle_gamma 90
_space_group_name_H-M_alt 'P 1'
_space_group_name_Hall 'P 1'
loop_
    _symmetry_equiv_pos_as_xyz
    x,y,z
loop_
    _atom_site_label
    _atom_site_type_symbol
    _atom_site_fract_x
    _atom_site_fract_y
    _atom_site_fract_z
    _atom_site_occupancy
    U1       U        0.24452    0.49013    0.43733    1.000
    U2       U        0.22309    0.23857    0.58577    1.000
    P1       P        0.22270    0.01820    0.17570    1.000
    P2       P        0.18670    0.24210    0.34450    1.000
    O1       O        0.19750    0.32780    0.42050    1.000
    O2       O        0.26730    0.09300    0.10270    1.000
    O3       O        0.21090    0.93180    0.10110    1.000
    O4       O        0.20900    0.15360    0.41410    1.000
    O5       O        0.28150    0.99220    0.26410    1.000
    O6       O        0.25410    0.25180    0.25680    1.000
    O7       O        0.09520    0.23870    0.30600    1.000
    O8       O        0.13740    0.05340    0.21350    1.000
    U3       U        0.74452    0.99013    0.43733    1.000
    U4       U        0.72309    0.73857    0.58577    1.000
    P3       P        0.72270    0.51820    0.17570    1.000
    P4       P        0.68670    0.74210    0.34450    1.000
    O9       O        0.69750    0.82780    0.42050    1.000
    O10      O        0.76730    0.59300    0.10270    1.000
    O11      O        0.71090    0.43180    0.10110    1.000
    O12      O        0.70900    0.65360    0.41410    1.000
    O13      O        0.78150    0.49220    0.26410    1.000
    O14      O        0.75410    0.75180    0.25680    1.000
    O15      O        0.59520    0.73870    0.30600    1.000
    O16      O        0.63740    0.55340    0.21350    1.000
    U5       U        0.75548    0.50987    0.93733    1.000
    U6       U        0.77691    0.76143    0.08577    1.000
    P5       P        0.77730    0.98180    0.67570    1.000
    P6       P        0.81330    0.75790    0.84450    1.000
    O17      O        0.80250    0.67220    0.92050    1.000
    O18      O        0.73270    0.90700    0.60270    1.000
    O19      O        0.78910    0.06820    0.60110    1.000
    O20      O        0.79100    0.84640    0.91410    1.000
    O21      O        0.71850    0.00780    0.76410    1.000
    O22      O        0.74590    0.74820    0.75680    1.000
    O23      O        0.90480    0.76130    0.80600    1.000
    O24      O        0.86260    0.94660    0.71350    1.000
    U7       U        0.25548    0.00987    0.93733    1.000
    U8       U        0.27691    0.26143    0.08577    1.000
    P7       P        0.27730    0.48180    0.67570    1.000
    P8       P        0.31330    0.25790    0.84450    1.000
    O25      O        0.30250    0.17220    0.92050    1.000
    O26      O        0.23270    0.40700    0.60270    1.000
    O27      O        0.28910    0.56820    0.60110    1.000
    O28      O        0.29100    0.34640    0.91410    1.000
    O29      O        0.21850    0.50780    0.76410    1.000
    O30      O        0.24590    0.24820    0.75680    1.000
    O31      O        0.40480    0.26130    0.80600    1.000
    O32      O        0.36260    0.44660    0.71350    1.000
    U9       U        0.24452    0.50987    0.93733    1.000
    U10      U        0.22309    0.76143    0.08577    1.000
    P9       P        0.22270    0.98180    0.67570    1.000
    P10      P        0.18670    0.75790    0.84450    1.000
    O33      O        0.19750    0.67220    0.92050    1.000
    O34      O        0.26730    0.90700    0.60270    1.000
    O35      O        0.21090    0.06820    0.60110    1.000
    O36      O        0.20900    0.84640    0.91410    1.000
    O37      O        0.28150    0.00780    0.76410    1.000
    O38      O        0.25410    0.74820    0.75680    1.000
    O39      O        0.09520    0.76130    0.80600    1.000
    O40      O        0.13740    0.94660    0.71350    1.000
    U11      U        0.74452    0.00987    0.93733    1.000
    U12      U        0.72309    0.26143    0.08577    1.000
    P11      P        0.72270    0.48180    0.67570    1.000
    P12      P        0.68670    0.25790    0.84450    1.000
    O41      O        0.69750    0.17220    0.92050    1.000
    O42      O        0.76730    0.40700    0.60270    1.000
    O43      O        0.71090    0.56820    0.60110    1.000
    O44      O        0.70900    0.34640    0.91410    1.000
    O45      O        0.78150    0.50780    0.76410    1.000
    O46      O        0.75410    0.24820    0.75680    1.000
    O47      O        0.59520    0.26130    0.80600    1.000
    O48      O        0.63740    0.44660    0.71350    1.000
    U13      U        0.75548    0.49013    0.43733    1.000
    U14      U        0.77691    0.23857    0.58577    1.000
    P13      P        0.77730    0.01820    0.17570    1.000
    P14      P        0.81330    0.24210    0.34450    1.000
    O49      O        0.80250    0.32780    0.42050    1.000
    O50      O        0.73270    0.09300    0.10270    1.000
    O51      O        0.78910    0.93180    0.10110    1.000
    O52      O        0.79100    0.15360    0.41410    1.000
    O53      O        0.71850    0.99220    0.26410    1.000
    O54      O        0.74590    0.25180    0.25680    1.000
    O55      O        0.90480    0.23870    0.30600    1.000
    O56      O        0.86260    0.05340    0.21350    1.000
    U15      U        0.25548    0.99013    0.43733    1.000
    U16      U        0.27691    0.73857    0.58577    1.000
    P15      P        0.27730    0.51820    0.17570    1.000
    P16      P        0.31330    0.74210    0.34450    1.000
    O57      O        0.30250    0.82780    0.42050    1.000
    O58      O        0.23270    0.59300    0.10270    1.000
    O59      O        0.28910    0.43180    0.10110    1.000
    O60      O        0.29100    0.65360    0.41410    1.000
    O61      O        0.21850    0.49220    0.26410    1.000
    O62      O        0.24590    0.75180    0.25680    1.000
    O63      O        0.40480    0.73870    0.30600    1.000
    O64      O        0.36260    0.55340    0.21350    1.000
    U17      U        0.00000    0.11612    0.24394    1.000
    U18      U        0.50000    0.61612    0.24394    1.000
    U19      U        0.00000    0.88388    0.74394    1.000
    U20      U        0.50000    0.38388    0.74394    1.000
