# CIF file generated by openbabel 3.1.0, see https://openbabel.org
data_I
_chemical_name_common 'image0'
_cell_length_a 13.5392
_cell_length_b 13.5392
_cell_length_c 8.0692
_cell_angle_alpha 90
_cell_angle_beta 90
_cell_angle_gamma 120
_space_group_name_H-M_alt 'P 1'
_space_group_name_Hall 'P 1'
loop_
    _symmetry_equiv_pos_as_xyz
    x,y,z
loop_
    _atom_site_label
    _atom_site_type_symbol
    _atom_site_fract_x
    _atom_site_fract_y
    _atom_site_fract_z
    _atom_site_occupancy
    Mn1      Mn       0.29673    0.33238    0.54381    1.000
    O1       O        0.22590    0.17690    0.40670    1.000
    C1       C        0.53070    0.31950    0.56130    1.000
    C2       C        0.35410    0.55490    0.77310    1.000
    O2       O        0.23970    0.05330    0.24530    1.000
    C3       C        0.26150    0.15410    0.28030    1.000
    N1       N        0.34040    0.20500    0.99870    1.000
    H1       H        0.40410    0.25270    0.94260    1.000
    H2       H        0.27960    0.19460    0.93960    1.000
    C4       C        0.34060    0.25200    0.16340    1.000
    H3       H        0.41800    0.28370    0.20740    1.000
    N2       N        0.36390    0.42420    0.30370    1.000
    H4       H        0.34790    0.48110    0.29680    1.000
    H5       H        0.44020    0.45560    0.30240    1.000
    C5       C        0.31570    0.34950    0.15770    1.000
    H6       H        0.34810    0.39370    0.05760    1.000
    H7       H        0.23380    0.31890    0.15450    1.000
    N3       N        0.45060    0.31740    0.61260    1.000
    N4       N        0.36490    0.49410    0.68870    1.000
    Mn2      Mn       0.66762    0.96435    0.54381    1.000
    O3       O        0.82310    0.04900    0.40670    1.000
    C6       C        0.68050    0.21120    0.56130    1.000
    C7       C        0.44510    0.79920    0.77310    1.000
    O4       O        0.94670    0.18640    0.24530    1.000
    C8       C        0.84590    0.10740    0.28030    1.000
    N5       N        0.79500    0.13540    0.99870    1.000
    H8       H        0.74730    0.15140    0.94260    1.000
    H9       H        0.80540    0.08500    0.93960    1.000
    C9       C        0.74800    0.08860    0.16340    1.000
    H10      H        0.71630    0.13430    0.20740    1.000
    N6       N        0.57580    0.93970    0.30370    1.000
    H11      H        0.51890    0.86680    0.29680    1.000
    H12      H        0.54440    0.98460    0.30240    1.000
    C10      C        0.65050    0.96620    0.15770    1.000
    H13      H        0.60630    0.95440    0.05760    1.000
    H14      H        0.68110    0.91490    0.15450    1.000
    N7       N        0.68260    0.13320    0.61260    1.000
    N8       N        0.50590    0.87080    0.68870    1.000
    Mn3      Mn       0.03565    0.70327    0.54381    1.000
    O5       O        0.95100    0.77410    0.40670    1.000
    C11      C        0.78880    0.46930    0.56130    1.000
    C12      C        0.20080    0.64590    0.77310    1.000
    O6       O        0.81360    0.76030    0.24530    1.000
    C13      C        0.89260    0.73850    0.28030    1.000
    N9       N        0.86460    0.65960    0.99870    1.000
    H15      H        0.84860    0.59590    0.94260    1.000
    H16      H        0.91500    0.72040    0.93960    1.000
    C14      C        0.91140    0.65940    0.16340    1.000
    H17      H        0.86570    0.58200    0.20740    1.000
    N10      N        0.06030    0.63610    0.30370    1.000
    H18      H        0.13320    0.65210    0.29680    1.000
    H19      H        0.01540    0.55980    0.30240    1.000
    C15      C        0.03380    0.68430    0.15770    1.000
    H20      H        0.04560    0.65190    0.05760    1.000
    H21      H        0.08510    0.76620    0.15450    1.000
    N11      N        0.86680    0.54940    0.61260    1.000
    N12      N        0.12920    0.63510    0.68870    1.000
    Mn4      Mn       0.70327    0.66762    0.04381    1.000
    O7       O        0.77410    0.82310    0.90670    1.000
    C16      C        0.46930    0.68050    0.06130    1.000
    C17      C        0.64590    0.44510    0.27310    1.000
    O8       O        0.76030    0.94670    0.74530    1.000
    C18      C        0.73850    0.84590    0.78030    1.000
    N13      N        0.65960    0.79500    0.49870    1.000
    H22      H        0.59590    0.74730    0.44260    1.000
    H23      H        0.72040    0.80540    0.43960    1.000
    C19      C        0.65940    0.74800    0.66340    1.000
    H24      H        0.58200    0.71630    0.70740    1.000
    N14      N        0.63610    0.57580    0.80370    1.000
    H25      H        0.65210    0.51890    0.79680    1.000
    H26      H        0.55980    0.54440    0.80240    1.000
    C20      C        0.68430    0.65050    0.65770    1.000
    H27      H        0.65190    0.60630    0.55760    1.000
    H28      H        0.76620    0.68110    0.65450    1.000
    N15      N        0.54940    0.68260    0.11260    1.000
    N16      N        0.63510    0.50590    0.18870    1.000
    Mn5      Mn       0.33238    0.03565    0.04381    1.000
    O9       O        0.17690    0.95100    0.90670    1.000
    C21      C        0.31950    0.78880    0.06130    1.000
    C22      C        0.55490    0.20080    0.27310    1.000
    O10      O        0.05330    0.81360    0.74530    1.000
    C23      C        0.15410    0.89260    0.78030    1.000
    N17      N        0.20500    0.86460    0.49870    1.000
    H29      H        0.25270    0.84860    0.44260    1.000
    H30      H        0.19460    0.91500    0.43960    1.000
    C24      C        0.25200    0.91140    0.66340    1.000
    H31      H        0.28370    0.86570    0.70740    1.000
    N18      N        0.42420    0.06030    0.80370    1.000
    H32      H        0.48110    0.13320    0.79680    1.000
    H33      H        0.45560    0.01540    0.80240    1.000
    C25      C        0.34950    0.03380    0.65770    1.000
    H34      H        0.39370    0.04560    0.55760    1.000
    H35      H        0.31890    0.08510    0.65450    1.000
    N19      N        0.31740    0.86680    0.11260    1.000
    N20      N        0.49410    0.12920    0.18870    1.000
    Mn6      Mn       0.96435    0.29673    0.04381    1.000
    O11      O        0.04900    0.22590    0.90670    1.000
    C26      C        0.21120    0.53070    0.06130    1.000
    C27      C        0.79920    0.35410    0.27310    1.000
    O12      O        0.18640    0.23970    0.74530    1.000
    C28      C        0.10740    0.26150    0.78030    1.000
    N21      N        0.13540    0.34040    0.49870    1.000
    H36      H        0.15140    0.40410    0.44260    1.000
    H37      H        0.08500    0.27960    0.43960    1.000
    C29      C        0.08860    0.34060    0.66340    1.000
    H38      H        0.13430    0.41800    0.70740    1.000
    N22      N        0.93970    0.36390    0.80370    1.000
    H39      H        0.86680    0.34790    0.79680    1.000
    H40      H        0.98460    0.44020    0.80240    1.000
    C30      C        0.96620    0.31570    0.65770    1.000
    H41      H        0.95440    0.34810    0.55760    1.000
    H42      H        0.91490    0.23380    0.65450    1.000
    N23      N        0.13320    0.45060    0.11260    1.000
    N24      N        0.87080    0.36490    0.18870    1.000
    Cr1      Cr       0.33333    0.66667    0.92440    1.000
    Cr2      Cr       0.66667    0.33333    0.42440    1.000
