# CIF file generated by openbabel 3.1.0, see https://openbabel.org
data_I
_chemical_name_common 'image0'
_cell_length_a 11.715
_cell_length_b 5.5679
_cell_length_c 22.8208
_cell_angle_alpha 90
_cell_angle_beta 100.532
_cell_angle_gamma 90
_space_group_name_H-M_alt 'P 1'
_space_group_name_Hall 'P 1'
loop_
    _symmetry_equiv_pos_as_xyz
    x,y,z
loop_
    _atom_site_label
    _atom_site_type_symbol
    _atom_site_fract_x
    _atom_site_fract_y
    _atom_site_fract_z
    _atom_site_occupancy
    Ca1      Ca       0.86255    0.24358    0.27793    1.000
    S1       S        0.10095    0.03536    0.39303    1.000
    O1       O        0.08355    0.77950    0.38907    1.000
    O2       O        0.00490    0.19450    0.37009    1.000
    O3       O        0.23571    0.47670    0.67200    1.000
    O4       O        0.23927    0.08510    0.69086    1.000
    O5       O        0.51327    0.47660    0.25391    1.000
    O6       O        0.54238    0.08080    0.24482    1.000
    C1       C        0.20110    0.20850    0.58947    1.000
    C2       C        0.14650    0.38070    0.55011    1.000
    H1       H        0.12860    0.53310    0.56480    1.000
    C3       C        0.11790    0.33250    0.48936    1.000
    H2       H        0.08010    0.45000    0.46240    1.000
    C4       C        0.14579    0.10870    0.46905    1.000
    C5       C        0.20530    0.93790    0.50746    1.000
    H3       H        0.22740    0.78910    0.49250    1.000
    C6       C        0.23210    0.98830    0.56816    1.000
    H4       H        0.27160    0.87240    0.59500    1.000
    C7       C        0.22560    0.26190    0.65520    1.000
    C8       C        0.39936    0.20800    0.29898    1.000
    C9       C        0.31160    0.37670    0.29973    1.000
    H5       H        0.31460    0.52660    0.28020    1.000
    C10      C        0.21960    0.32780    0.32884    1.000
    H6       H        0.15900    0.44120    0.32880    1.000
    C11      C        0.21875    0.10870    0.35791    1.000
    C12      C        0.30710    0.94000    0.35928    1.000
    H7       H        0.30570    0.79350    0.38050    1.000
    C13      C        0.39738    0.98970    0.32908    1.000
    H8       H        0.45760    0.87550    0.32890    1.000
    C14      C        0.49374    0.25870    0.26326    1.000
    Ca2      Ca       0.63745    0.74358    0.22207    1.000
    S2       S        0.39905    0.53536    0.10697    1.000
    O7       O        0.41645    0.27950    0.11093    1.000
    O8       O        0.49510    0.69450    0.12991    1.000
    O9       O        0.26429    0.97670    0.82800    1.000
    O10      O        0.26073    0.58510    0.80914    1.000
    O11      O        0.98673    0.97660    0.24609    1.000
    O12      O        0.95762    0.58080    0.25518    1.000
    C15      C        0.29890    0.70850    0.91053    1.000
    C16      C        0.35350    0.88070    0.94989    1.000
    H9       H        0.37140    0.03310    0.93520    1.000
    C17      C        0.38210    0.83250    0.01064    1.000
    H10      H        0.41990    0.95000    0.03760    1.000
    C18      C        0.35421    0.60870    0.03095    1.000
    C19      C        0.29470    0.43790    0.99254    1.000
    H11      H        0.27260    0.28910    0.00750    1.000
    C20      C        0.26790    0.48830    0.93184    1.000
    H12      H        0.22840    0.37240    0.90500    1.000
    C21      C        0.27440    0.76190    0.84480    1.000
    C22      C        0.10064    0.70800    0.20102    1.000
    C23      C        0.18840    0.87670    0.20027    1.000
    H13      H        0.18540    0.02660    0.21980    1.000
    C24      C        0.28040    0.82780    0.17116    1.000
    H14      H        0.34100    0.94120    0.17120    1.000
    C25      C        0.28125    0.60870    0.14209    1.000
    C26      C        0.19290    0.44000    0.14072    1.000
    H15      H        0.19430    0.29350    0.11950    1.000
    C27      C        0.10262    0.48970    0.17092    1.000
    H16      H        0.04240    0.37550    0.17110    1.000
    C28      C        0.00626    0.75870    0.23674    1.000
    Ca3      Ca       0.13745    0.75642    0.72207    1.000
    S3       S        0.89905    0.96464    0.60697    1.000
    O13      O        0.91645    0.22050    0.61093    1.000
    O14      O        0.99510    0.80550    0.62991    1.000
    O15      O        0.76429    0.52330    0.32800    1.000
    O16      O        0.76073    0.91490    0.30914    1.000
    O17      O        0.48673    0.52340    0.74609    1.000
    O18      O        0.45762    0.91920    0.75518    1.000
    C29      C        0.79890    0.79150    0.41053    1.000
    C30      C        0.85350    0.61930    0.44989    1.000
    H17      H        0.87140    0.46690    0.43520    1.000
    C31      C        0.88210    0.66750    0.51064    1.000
    H18      H        0.91990    0.55000    0.53760    1.000
    C32      C        0.85421    0.89130    0.53095    1.000
    C33      C        0.79470    0.06210    0.49254    1.000
    H19      H        0.77260    0.21090    0.50750    1.000
    C34      C        0.76790    0.01170    0.43184    1.000
    H20      H        0.72840    0.12760    0.40500    1.000
    C35      C        0.77440    0.73810    0.34480    1.000
    C36      C        0.60064    0.79200    0.70102    1.000
    C37      C        0.68840    0.62330    0.70027    1.000
    H21      H        0.68540    0.47340    0.71980    1.000
    C38      C        0.78040    0.67220    0.67116    1.000
    H22      H        0.84100    0.55880    0.67120    1.000
    C39      C        0.78125    0.89130    0.64209    1.000
    C40      C        0.69290    0.06000    0.64072    1.000
    H23      H        0.69430    0.20650    0.61950    1.000
    C41      C        0.60262    0.01030    0.67092    1.000
    H24      H        0.54240    0.12450    0.67110    1.000
    C42      C        0.50626    0.74130    0.73674    1.000
    Ca4      Ca       0.36255    0.25642    0.77793    1.000
    S4       S        0.60095    0.46464    0.89303    1.000
    O19      O        0.58355    0.72050    0.88907    1.000
    O20      O        0.50490    0.30550    0.87009    1.000
    O21      O        0.73571    0.02330    0.17200    1.000
    O22      O        0.73927    0.41490    0.19086    1.000
    O23      O        0.01327    0.02340    0.75391    1.000
    O24      O        0.04238    0.41920    0.74482    1.000
    C43      C        0.70110    0.29150    0.08947    1.000
    C44      C        0.64650    0.11930    0.05011    1.000
    H25      H        0.62860    0.96690    0.06480    1.000
    C45      C        0.61790    0.16750    0.98936    1.000
    H26      H        0.58010    0.05000    0.96240    1.000
    C46      C        0.64579    0.39130    0.96905    1.000
    C47      C        0.70530    0.56210    0.00746    1.000
    H27      H        0.72740    0.71090    0.99250    1.000
    C48      C        0.73210    0.51170    0.06816    1.000
    H28      H        0.77160    0.62760    0.09500    1.000
    C49      C        0.72560    0.23810    0.15520    1.000
    C50      C        0.89936    0.29200    0.79898    1.000
    C51      C        0.81160    0.12330    0.79973    1.000
    H29      H        0.81460    0.97340    0.78020    1.000
    C52      C        0.71960    0.17220    0.82884    1.000
    H30      H        0.65900    0.05880    0.82880    1.000
    C53      C        0.71875    0.39130    0.85791    1.000
    C54      C        0.80710    0.56000    0.85928    1.000
    H31      H        0.80570    0.70650    0.88050    1.000
    C55      C        0.89738    0.51030    0.82908    1.000
    H32      H        0.95760    0.62450    0.82890    1.000
    C56      C        0.99374    0.24130    0.76326    1.000
