# CIF file generated by openbabel 3.1.0, see https://openbabel.org
data_I
_chemical_name_common 'KABXIW_clean'
_cell_length_a 13.7866
_cell_length_b 13.7866
_cell_length_c 16.522
_cell_angle_alpha 67.0874
_cell_angle_beta 67.0874
_cell_angle_gamma 75.5061
_space_group_name_H-M_alt 'P 1'
_space_group_name_Hall 'P 1'
loop_
    _symmetry_equiv_pos_as_xyz
    x,y,z
loop_
    _atom_site_label
    _atom_site_type_symbol
    _atom_site_fract_x
    _atom_site_fract_y
    _atom_site_fract_z
    _atom_site_occupancy
    Pr1      Pr       0.83158    0.54600    0.50254    1.000
    Pr2      Pr       0.45400    0.16842    0.99746    1.000
    Pr3      Pr       0.16842    0.45400    0.49746    1.000
    Pr4      Pr       0.54600    0.83158    0.00254    1.000
    H1       H        0.91330    0.45210    0.28600    1.000
    H2       H        0.07800    0.34760    0.06800    1.000
    H3       H        0.22220    0.34060    0.24050    1.000
    H4       H        0.92010    0.87430    0.34670    1.000
    H5       H        0.54790    0.08670    0.21400    1.000
    H6       H        0.65240    0.92200    0.43200    1.000
    H7       H        0.65940    0.77780    0.25950    1.000
    H8       H        0.12570    0.07990    0.15330    1.000
    H9       H        0.08670    0.54790    0.71400    1.000
    H10      H        0.92200    0.65240    0.93200    1.000
    H11      H        0.77780    0.65940    0.75950    1.000
    H12      H        0.07990    0.12570    0.65330    1.000
    H13      H        0.45210    0.91330    0.78600    1.000
    H14      H        0.34760    0.07800    0.56800    1.000
    H15      H        0.34060    0.22220    0.74050    1.000
    H16      H        0.87430    0.92010    0.84670    1.000
    H17      H        0.22910    0.77090    0.25000    1.000
    H18      H        0.77090    0.22910    0.75000    1.000
    C1       C        0.06580    0.42580    0.35810    1.000
    C2       C        0.06790    0.40230    0.27570    1.000
    C3       C        0.97700    0.42380    0.25120    1.000
    C4       C        0.98280    0.40240    0.17420    1.000
    C5       C        0.07600    0.36000    0.12010    1.000
    C6       C        0.16640    0.33660    0.14580    1.000
    C7       C        0.16190    0.35710    0.22320    1.000
    C8       C        0.26600    0.28540    0.08990    1.000
    C9       C        0.04940    0.69400    0.37600    1.000
    C10      C        0.07140    0.80520    0.31040    1.000
    C11      C        0.98930    0.88710    0.30880    1.000
    C12      C        0.57420    0.93420    0.14190    1.000
    C13      C        0.59770    0.93210    0.22430    1.000
    C14      C        0.57620    0.02300    0.24880    1.000
    C15      C        0.59760    0.01720    0.32580    1.000
    C16      C        0.64000    0.92400    0.37990    1.000
    C17      C        0.66340    0.83360    0.35420    1.000
    C18      C        0.64290    0.83810    0.27680    1.000
    C19      C        0.71460    0.73400    0.41010    1.000
    C20      C        0.30600    0.95060    0.12400    1.000
    C21      C        0.19480    0.92860    0.18960    1.000
    C22      C        0.11290    0.01070    0.19120    1.000
    C23      C        0.93420    0.57420    0.64190    1.000
    C24      C        0.93210    0.59770    0.72430    1.000
    C25      C        0.02300    0.57620    0.74880    1.000
    C26      C        0.01720    0.59760    0.82580    1.000
    C27      C        0.92400    0.64000    0.87990    1.000
    C28      C        0.83360    0.66340    0.85420    1.000
    C29      C        0.83810    0.64290    0.77680    1.000
    C30      C        0.73400    0.71460    0.91010    1.000
    C31      C        0.95060    0.30600    0.62400    1.000
    C32      C        0.92860    0.19480    0.68960    1.000
    C33      C        0.01070    0.11290    0.69120    1.000
    C34      C        0.42580    0.06580    0.85810    1.000
    C35      C        0.40230    0.06790    0.77570    1.000
    C36      C        0.42380    0.97700    0.75120    1.000
    C37      C        0.40240    0.98280    0.67420    1.000
    C38      C        0.36000    0.07600    0.62010    1.000
    C39      C        0.33660    0.16640    0.64580    1.000
    C40      C        0.35710    0.16190    0.72320    1.000
    C41      C        0.28540    0.26600    0.58990    1.000
    C42      C        0.69400    0.04940    0.87600    1.000
    C43      C        0.80520    0.07140    0.81040    1.000
    C44      C        0.88710    0.98930    0.80880    1.000
    C45      C        0.17400    0.82600    0.25000    1.000
    C46      C        0.01220    0.98780    0.25000    1.000
    C47      C        0.82600    0.17400    0.75000    1.000
    C48      C        0.98780    0.01220    0.75000    1.000
    N1       N        0.88760    0.42440    0.14770    1.000
    N2       N        0.57560    0.11240    0.35230    1.000
    N3       N        0.11240    0.57560    0.85230    1.000
    N4       N        0.42440    0.88760    0.64770    1.000
    N5       N        0.92510    0.07490    0.25000    1.000
    N6       N        0.07490    0.92510    0.75000    1.000
    O1       O        0.80160    0.44180    0.20500    1.000
    O2       O        0.89740    0.42420    0.07140    1.000
    O3       O        0.97869    0.46709    0.40250    1.000
    O4       O        0.15033    0.40533    0.37590    1.000
    O5       O        0.34460    0.25240    0.12020    1.000
    O6       O        0.26830    0.27590    0.01700    1.000
    O7       O        0.95371    0.67831    0.41270    1.000
    O8       O        0.12703    0.62803    0.38890    1.000
    O9       O        0.83310    0.05310    0.29050    1.000
    O10      O        0.55820    0.19840    0.29500    1.000
    O11      O        0.57580    0.10260    0.42860    1.000
    O12      O        0.53291    0.02131    0.09750    1.000
    O13      O        0.59467    0.84967    0.12410    1.000
    O14      O        0.74760    0.65540    0.37980    1.000
    O15      O        0.72410    0.73170    0.48300    1.000
    O16      O        0.32169    0.04629    0.08730    1.000
    O17      O        0.37197    0.87297    0.11110    1.000
    O18      O        0.94690    0.16690    0.20950    1.000
    O19      O        0.19840    0.55820    0.79500    1.000
    O20      O        0.10260    0.57580    0.92860    1.000
    O21      O        0.02131    0.53291    0.59750    1.000
    O22      O        0.84967    0.59467    0.62410    1.000
    O23      O        0.65540    0.74760    0.87980    1.000
    O24      O        0.73170    0.72410    0.98300    1.000
    O25      O        0.04629    0.32169    0.58730    1.000
    O26      O        0.87297    0.37197    0.61110    1.000
    O27      O        0.16690    0.94690    0.70950    1.000
    O28      O        0.44180    0.80160    0.70500    1.000
    O29      O        0.42420    0.89740    0.57140    1.000
    O30      O        0.46709    0.97869    0.90250    1.000
    O31      O        0.40533    0.15033    0.87590    1.000
    O32      O        0.25240    0.34460    0.62020    1.000
    O33      O        0.27590    0.26830    0.51700    1.000
    O34      O        0.67831    0.95371    0.91270    1.000
    O35      O        0.62803    0.12703    0.88890    1.000
    O36      O        0.05310    0.83310    0.79050    1.000
