# CIF file generated by openbabel 3.1.0, see https://openbabel.org
data_I
_chemical_name_common 'VEFJOG_charged'
_cell_length_a 10.41
_cell_length_b 13.126
_cell_length_c 19.282
_cell_angle_alpha 86.692
_cell_angle_beta 78.256
_cell_angle_gamma 76.867
_space_group_name_H-M_alt 'P 1'
_space_group_name_Hall 'P 1'
loop_
    _symmetry_equiv_pos_as_xyz
    x,y,z
loop_
    _atom_site_label
    _atom_site_type_symbol
    _atom_site_fract_x
    _atom_site_fract_y
    _atom_site_fract_z
    _atom_site_occupancy
    Ag1      Ag       0.08914    0.18552    0.61685    1.000
    Ag2      Ag       0.28039    0.37187    0.14838    1.000
    Ag3      Ag       0.91086    0.81448    0.38315    1.000
    Ag4      Ag       0.71961    0.62813    0.85162    1.000
    H1       H        0.99450    0.20520    0.78170    1.000
    H2       H        0.36480    0.07860    0.66420    1.000
    H3       H        0.07920    0.61000    0.73460    1.000
    H4       H        0.01070    0.64410    0.86430    1.000
    H5       H        0.93170    0.50080    0.92400    1.000
    H6       H        0.71340    0.39990    0.91380    1.000
    H7       H        0.70160    0.16800    0.05930    1.000
    H8       H        0.90490    0.07790    0.99930    1.000
    H9       H        0.01370    0.14740    0.89830    1.000
    H10      H        0.31900    0.32970    0.63120    1.000
    H11      H        0.42770    0.38770    0.52520    1.000
    H12      H        0.31380    0.52580    0.46520    1.000
    H13      H        0.98700    0.54370    0.61650    1.000
    H14      H        0.57660    0.20450    0.38920    1.000
    H15      H        0.78010    0.23180    0.42620    1.000
    H16      H        0.76290    0.20120    0.55570    1.000
    H17      H        0.54730    0.95880    0.70340    1.000
    H18      H        0.75300    0.04340    0.83570    1.000
    H19      H        0.75090    0.20130    0.77630    1.000
    H20      H        0.63930    0.24020    0.68190    1.000
    H21      H        0.33780    0.28730    0.40610    1.000
    H22      H        0.20080    0.30390    0.32520    1.000
    H23      H        0.07100    0.18290    0.32440    1.000
    H24      H        0.22110    0.02720    0.48650    1.000
    H25      H        0.00550    0.79480    0.21830    1.000
    H26      H        0.63520    0.92140    0.33580    1.000
    H27      H        0.92080    0.39000    0.26540    1.000
    H28      H        0.98930    0.35590    0.13570    1.000
    H29      H        0.06830    0.49920    0.07600    1.000
    H30      H        0.28660    0.60010    0.08620    1.000
    H31      H        0.29840    0.83200    0.94070    1.000
    H32      H        0.09510    0.92210    0.00070    1.000
    H33      H        0.98630    0.85260    0.10170    1.000
    H34      H        0.68100    0.67030    0.36880    1.000
    H35      H        0.57230    0.61230    0.47480    1.000
    H36      H        0.68620    0.47420    0.53480    1.000
    H37      H        0.01300    0.45630    0.38350    1.000
    H38      H        0.42340    0.79550    0.61080    1.000
    H39      H        0.21990    0.76820    0.57380    1.000
    H40      H        0.23710    0.79880    0.44430    1.000
    H41      H        0.45270    0.04120    0.29660    1.000
    H42      H        0.24700    0.95660    0.16430    1.000
    H43      H        0.24910    0.79870    0.22370    1.000
    H44      H        0.36070    0.75980    0.31810    1.000
    H45      H        0.66220    0.71270    0.59390    1.000
    H46      H        0.79920    0.69610    0.67480    1.000
    H47      H        0.92900    0.81710    0.67560    1.000
    H48      H        0.77890    0.97280    0.51350    1.000
    C1       C        0.02710    0.46730    0.76080    1.000
    C2       C        0.03740    0.56900    0.76900    1.000
    C3       C        0.97330    0.59920    0.83860    1.000
    C4       C        0.92200    0.51590    0.87480    1.000
    C5       C        0.95730    0.43260    0.82650    1.000
    C6       C        0.94440    0.33060    0.83350    1.000
    C7       C        0.87640    0.28230    0.89740    1.000
    C8       C        0.75320    0.33590    0.93190    1.000
    C9       C        0.68730    0.29500    0.99390    1.000
    C10      C        0.56020    0.34950    0.03180    1.000
    C11      C        0.74530    0.19680    0.01860    1.000
    C12      C        0.86610    0.14330    0.98280    1.000
    C13      C        0.93150    0.18510    0.92240    1.000
    C14      C        0.07450    0.39750    0.70470    1.000
    C15      C        0.14210    0.43010    0.63440    1.000
    C16      C        0.27330    0.38470    0.60680    1.000
    C17      C        0.33860    0.41920    0.54360    1.000
    C18      C        0.27000    0.50130    0.50760    1.000
    C19      C        0.13710    0.54710    0.53420    1.000
    C20      C        0.06770    0.63100    0.49550    1.000
    C21      C        0.07560    0.51180    0.59770    1.000
    C22      C        0.37830    0.14670    0.50930    1.000
    C23      C        0.50830    0.16870    0.49590    1.000
    C24      C        0.59340    0.19720    0.43500    1.000
    C25      C        0.70770    0.21220    0.45650    1.000
    C26      C        0.69980    0.19430    0.52940    1.000
    C27      C        0.57720    0.16360    0.55500    1.000
    C28      C        0.51950    0.12590    0.61990    1.000
    C29      C        0.58290    0.10320    0.68200    1.000
    C30      C        0.58800    0.00820    0.71750    1.000
    C31      C        0.65330    0.98670    0.77370    1.000
    C32      C        0.66040    0.88700    0.80780    1.000
    C33      C        0.71170    0.05860    0.79670    1.000
    C34      C        0.70910    0.15280    0.76200    1.000
    C35      C        0.64300    0.17560    0.70490    1.000
    C36      C        0.29380    0.15610    0.45560    1.000
    C37      C        0.28600    0.23820    0.40610    1.000
    C38      C        0.20430    0.24840    0.35750    1.000
    C39      C        0.12750    0.17610    0.35690    1.000
    C40      C        0.13460    0.09300    0.40470    1.000
    C41      C        0.06040    0.01280    0.40000    1.000
    C42      C        0.21730    0.08290    0.45430    1.000
    C43      C        0.52200    0.48050    0.27450    1.000
    C44      C        0.97290    0.53270    0.23920    1.000
    C45      C        0.96260    0.43100    0.23100    1.000
    C46      C        0.02670    0.40080    0.16140    1.000
    C47      C        0.07800    0.48410    0.12520    1.000
    C48      C        0.04270    0.56740    0.17350    1.000
    C49      C        0.05560    0.66940    0.16650    1.000
    C50      C        0.12360    0.71770    0.10260    1.000
    C51      C        0.24680    0.66410    0.06810    1.000
    C52      C        0.31270    0.70500    0.00610    1.000
    C53      C        0.43980    0.65050    0.96820    1.000
    C54      C        0.25470    0.80320    0.98140    1.000
    C55      C        0.13390    0.85670    0.01720    1.000
    C56      C        0.06850    0.81490    0.07760    1.000
    C57      C        0.92550    0.60250    0.29530    1.000
    C58      C        0.85790    0.56990    0.36560    1.000
    C59      C        0.72670    0.61530    0.39320    1.000
    C60      C        0.66140    0.58080    0.45640    1.000
    C61      C        0.73000    0.49870    0.49240    1.000
    C62      C        0.86290    0.45290    0.46580    1.000
    C63      C        0.93230    0.36900    0.50450    1.000
    C64      C        0.92440    0.48820    0.40230    1.000
    C65      C        0.62170    0.85330    0.49070    1.000
    C66      C        0.49170    0.83130    0.50410    1.000
    C67      C        0.40660    0.80280    0.56500    1.000
    C68      C        0.29230    0.78780    0.54350    1.000
    C69      C        0.30020    0.80570    0.47060    1.000
    C70      C        0.42280    0.83640    0.44500    1.000
    C71      C        0.48050    0.87410    0.38010    1.000
    C72      C        0.41710    0.89680    0.31800    1.000
    C73      C        0.41200    0.99180    0.28250    1.000
    C74      C        0.34670    0.01330    0.22630    1.000
    C75      C        0.33960    0.11300    0.19220    1.000
    C76      C        0.28830    0.94140    0.20330    1.000
    C77      C        0.29090    0.84720    0.23800    1.000
    C78      C        0.35700    0.82440    0.29510    1.000
    C79      C        0.70620    0.84390    0.54440    1.000
    C80      C        0.71400    0.76180    0.59390    1.000
    C81      C        0.79570    0.75160    0.64250    1.000
    C82      C        0.87250    0.82390    0.64310    1.000
    C83      C        0.86540    0.90700    0.59530    1.000
    C84      C        0.93960    0.98720    0.60000    1.000
    C85      C        0.78270    0.91710    0.54570    1.000
    C86      C        0.47800    0.51950    0.72550    1.000
    S1       S        0.34160    0.52110    0.27144    1.000
    S2       S        0.65840    0.47890    0.72856    1.000
    N1       N        0.00000    0.26960    0.77660    1.000
    N2       N        0.06420    0.29780    0.71160    1.000
    N3       N        0.01180    0.69600    0.46430    1.000
    N4       N        0.45980    0.39080    0.06320    1.000
    N5       N        0.39910    0.10360    0.62420    1.000
    N6       N        0.32430    0.11580    0.57290    1.000
    N7       N        0.00720    0.94970    0.39590    1.000
    N8       N        0.66700    0.80420    0.83210    1.000
    N9       N        0.00000    0.73040    0.22340    1.000
    N10      N        0.93580    0.70220    0.28840    1.000
    N11      N        0.98820    0.30400    0.53570    1.000
    N12      N        0.54020    0.60920    0.93680    1.000
    N13      N        0.60090    0.89640    0.37580    1.000
    N14      N        0.67570    0.88420    0.42710    1.000
    N15      N        0.99280    0.05030    0.60410    1.000
    N16      N        0.33300    0.19580    0.16790    1.000
    O1       O        0.34340    0.59010    0.21320    1.000
    O2       O        0.27990    0.56870    0.33600    1.000
    O3       O        0.30710    0.42790    0.25850    1.000
    O4       O        0.65660    0.40990    0.78680    1.000
    O5       O        0.72010    0.43130    0.66400    1.000
    O6       O        0.69290    0.57210    0.74150    1.000
    F1       F        0.56300    0.56030    0.28620    1.000
    F2       F        0.52680    0.41840    0.33220    1.000
    F3       F        0.58630    0.43180    0.22210    1.000
    F4       F        0.43700    0.43970    0.71380    1.000
    F5       F        0.47320    0.58160    0.66780    1.000
    F6       F        0.41370    0.56820    0.77790    1.000
    C87      C        0.14710    0.85820    0.78220    1.000
    S3       S        0.16980    0.98461    0.78766    1.000
    O7       O        0.18270    0.98520    0.86290    1.000
    O8       O        0.04990    0.04930    0.76960    1.000
    O9       O        0.28500    0.98990    0.73700    1.000
    F7       F        0.13970    0.84200    0.71370    1.000
    F8       F        0.03390    0.84730    0.81960    1.000
    F9       F        0.23790    0.78730    0.80140    1.000
    C88      C        0.85290    0.14180    0.21780    1.000
    S4       S        0.83020    0.01539    0.21234    1.000
    O10      O        0.81730    0.01480    0.13710    1.000
    O11      O        0.95010    0.95070    0.23040    1.000
    O12      O        0.71500    0.01010    0.26300    1.000
    F10      F        0.86030    0.15800    0.28630    1.000
    F11      F        0.96610    0.15270    0.18040    1.000
    F12      F        0.76210    0.21270    0.19860    1.000
