# CIF file generated by openbabel 3.1.0, see https://openbabel.org
data_I
_chemical_name_common 'image0'
_cell_length_a 12.344
_cell_length_b 26.323
_cell_length_c 15.663
_cell_angle_alpha 90
_cell_angle_beta 97.56
_cell_angle_gamma 90
_space_group_name_H-M_alt 'P 1'
_space_group_name_Hall 'P 1'
loop_
    _symmetry_equiv_pos_as_xyz
    x,y,z
loop_
    _atom_site_label
    _atom_site_type_symbol
    _atom_site_fract_x
    _atom_site_fract_y
    _atom_site_fract_z
    _atom_site_occupancy
    Zn1      Zn       0.22368    0.24099    0.22120    1.000
    Zn2      Zn       0.38279    0.26324    0.40834    1.000
    O1       O        0.45430    0.29750    0.32190    1.000
    O2       O        0.34390    0.28881    0.19740    1.000
    O3       O        0.67820    0.45522    0.10080    1.000
    O4       O        0.50800    0.68171    0.12570    1.000
    O5       O        0.67770    0.69478    0.09830    1.000
    O6       O        0.25990    0.30981    0.42220    1.000
    O7       O        0.15460    0.27811    0.30710    1.000
    O8       O        0.82950    0.44400    0.41010    1.000
    O9       O        0.88950    0.66568    0.25580    1.000
    O10      O        0.72790    0.67233    0.30100    1.000
    N1       N        0.48510    0.27460    0.51670    1.000
    N2       N        0.77900    0.26360    0.77110    1.000
    N3       N        0.82560    0.26170    0.85740    1.000
    N4       N        0.11960    0.25945    0.11080    1.000
    C1       C        0.42470    0.30780    0.24390    1.000
    C2       C        0.49130    0.34660    0.20570    1.000
    C3       C        0.56650    0.37510    0.25870    1.000
    H1       H        0.57660    0.36890    0.31890    1.000
    C4       C        0.62740    0.41260    0.22490    1.000
    H2       H        0.67750    0.43280    0.26160    1.000
    C5       C        0.61330    0.41990    0.13630    1.000
    C6       C        0.54010    0.39260    0.08310    1.000
    H3       H        0.53230    0.39820    0.02270    1.000
    C7       C        0.47650    0.35620    0.11730    1.000
    H4       H        0.42290    0.33780    0.08050    1.000
    C8       C        0.65620    0.50620    0.11000    1.000
    C9       C        0.73420    0.53900    0.08410    1.000
    H5       H        0.79840    0.52610    0.06430    1.000
    C10      C        0.71600    0.59100    0.08780    1.000
    H6       H        0.76810    0.61380    0.06960    1.000
    C11      C        0.62340    0.61010    0.11740    1.000
    C12      C        0.54880    0.57650    0.14290    1.000
    H7       H        0.48470    0.58940    0.16270    1.000
    C13      C        0.56420    0.52440    0.14070    1.000
    H8       H        0.51240    0.50180    0.15980    1.000
    C14      C        0.60000    0.66540    0.11530    1.000
    C15      C        0.17250    0.30860    0.37010    1.000
    C16      C        0.08390    0.34460    0.38250    1.000
    C17      C        0.09060    0.37730    0.45240    1.000
    H9       H        0.15350    0.37670    0.49440    1.000
    C18      C        0.00650    0.41070    0.46140    1.000
    H10      H        0.01080    0.43250    0.51010    1.000
    C19      C        0.91730    0.41220    0.40000    1.000
    C20      C        0.90570    0.37920    0.32990    1.000
    H11      H        0.84190    0.38000    0.28880    1.000
    C21      C        0.98990    0.34490    0.32130    1.000
    H12      H        0.98370    0.32190    0.27420    1.000
    C22      C        0.82960    0.49290    0.37530    1.000
    C23      C        0.73890    0.52190    0.38800    1.000
    H13      H        0.68270    0.50840    0.41740    1.000
    C24      C        0.73300    0.57150    0.35630    1.000
    H14      H        0.67210    0.59200    0.36490    1.000
    C25      C        0.81420    0.59180    0.31220    1.000
    C26      C        0.90170    0.56070    0.29980    1.000
    H15      H        0.95720    0.57370    0.26920    1.000
    C27      C        0.91050    0.51130    0.33060    1.000
    H16      H        0.97090    0.49070    0.32120    1.000
    C28      C        0.81240    0.64610    0.28640    1.000
    C29      C        0.58680    0.25360    0.52940    1.000
    H17      H        0.61250    0.23670    0.48240    1.000
    C30      C        0.65320    0.25550    0.60520    1.000
    H18      H        0.72470    0.24150    0.61060    1.000
    C31      C        0.61430    0.27820    0.67450    1.000
    C32      C        0.51210    0.30190    0.66330    1.000
    H19      H        0.48660    0.31990    0.70930    1.000
    C33      C        0.44980    0.29850    0.58440    1.000
    H20      H        0.37920    0.31360    0.57700    1.000
    C34      C        0.67870    0.27880    0.76210    1.000
    H21      H        0.64640    0.29010    0.81050    1.000
    C35      C        0.92270    0.27630    0.86710    1.000
    H22      H        0.95460    0.29000    0.82010    1.000
    C36      C        0.98590    0.27200    0.95250    1.000
    C37      C        0.09350    0.29050    0.96690    1.000
    H23      H        0.12350    0.30790    0.92230    1.000
    C38      C        0.15500    0.28330    0.04530    1.000
    H24      H        0.22740    0.29630    0.05330    1.000
    C39      C        0.01570    0.24290    0.09970    1.000
    H25      H        0.98720    0.22720    0.14660    1.000
    C40      C        0.94920    0.24800    0.02230    1.000
    H26      H        0.87690    0.23490    0.01660    1.000
    Zn3      Zn       0.77632    0.74099    0.27880    1.000
    Zn4      Zn       0.61721    0.76324    0.09166    1.000
    O11      O        0.54570    0.79750    0.17810    1.000
    O12      O        0.65610    0.78881    0.30260    1.000
    O13      O        0.32180    0.95522    0.39920    1.000
    O14      O        0.49200    0.18171    0.37430    1.000
    O15      O        0.32230    0.19478    0.40170    1.000
    O16      O        0.74010    0.80981    0.07780    1.000
    O17      O        0.84540    0.77811    0.19290    1.000
    O18      O        0.17050    0.94400    0.08990    1.000
    O19      O        0.11050    0.16568    0.24420    1.000
    O20      O        0.27210    0.17233    0.19900    1.000
    N5       N        0.51490    0.77460    0.98330    1.000
    N6       N        0.22100    0.76360    0.72890    1.000
    N7       N        0.17440    0.76170    0.64260    1.000
    N8       N        0.88040    0.75945    0.38920    1.000
    C41      C        0.57530    0.80780    0.25610    1.000
    C42      C        0.50870    0.84660    0.29430    1.000
    C43      C        0.43350    0.87510    0.24130    1.000
    H27      H        0.42340    0.86890    0.18110    1.000
    C44      C        0.37260    0.91260    0.27510    1.000
    H28      H        0.32250    0.93280    0.23840    1.000
    C45      C        0.38670    0.91990    0.36370    1.000
    C46      C        0.45990    0.89260    0.41690    1.000
    H29      H        0.46770    0.89820    0.47730    1.000
    C47      C        0.52350    0.85620    0.38270    1.000
    H30      H        0.57710    0.83780    0.41950    1.000
    C48      C        0.34380    0.00620    0.39000    1.000
    C49      C        0.26580    0.03900    0.41590    1.000
    H31      H        0.20160    0.02610    0.43570    1.000
    C50      C        0.28400    0.09100    0.41220    1.000
    H32      H        0.23190    0.11380    0.43040    1.000
    C51      C        0.37660    0.11010    0.38260    1.000
    C52      C        0.45120    0.07650    0.35710    1.000
    H33      H        0.51530    0.08940    0.33730    1.000
    C53      C        0.43580    0.02440    0.35930    1.000
    H34      H        0.48760    0.00180    0.34020    1.000
    C54      C        0.40000    0.16540    0.38470    1.000
    C55      C        0.82750    0.80860    0.12990    1.000
    C56      C        0.91610    0.84460    0.11750    1.000
    C57      C        0.90940    0.87730    0.04760    1.000
    H35      H        0.84650    0.87670    0.00560    1.000
    C58      C        0.99350    0.91070    0.03860    1.000
    H36      H        0.98920    0.93250    0.98990    1.000
    C59      C        0.08270    0.91220    0.10000    1.000
    C60      C        0.09430    0.87920    0.17010    1.000
    H37      H        0.15810    0.88000    0.21120    1.000
    C61      C        0.01010    0.84490    0.17870    1.000
    H38      H        0.01630    0.82190    0.22580    1.000
    C62      C        0.17040    0.99290    0.12470    1.000
    C63      C        0.26110    0.02190    0.11200    1.000
    H39      H        0.31730    0.00840    0.08260    1.000
    C64      C        0.26700    0.07150    0.14370    1.000
    H40      H        0.32790    0.09200    0.13510    1.000
    C65      C        0.18580    0.09180    0.18780    1.000
    C66      C        0.09830    0.06070    0.20020    1.000
    H41      H        0.04280    0.07370    0.23080    1.000
    C67      C        0.08950    0.01130    0.16940    1.000
    H42      H        0.02910    0.99070    0.17880    1.000
    C68      C        0.18760    0.14610    0.21360    1.000
    C69      C        0.41320    0.75360    0.97060    1.000
    H43      H        0.38750    0.73670    0.01760    1.000
    C70      C        0.34680    0.75550    0.89480    1.000
    H44      H        0.27530    0.74150    0.88940    1.000
    C71      C        0.38570    0.77820    0.82550    1.000
    C72      C        0.48790    0.80190    0.83670    1.000
    H45      H        0.51340    0.81990    0.79070    1.000
    C73      C        0.55020    0.79850    0.91560    1.000
    H46      H        0.62080    0.81360    0.92300    1.000
    C74      C        0.32130    0.77880    0.73790    1.000
    H47      H        0.35360    0.79010    0.68950    1.000
    C75      C        0.07730    0.77630    0.63290    1.000
    H48      H        0.04540    0.79000    0.67990    1.000
    C76      C        0.01410    0.77200    0.54750    1.000
    C77      C        0.90650    0.79050    0.53310    1.000
    H49      H        0.87650    0.80790    0.57770    1.000
    C78      C        0.84500    0.78330    0.45470    1.000
    H50      H        0.77260    0.79630    0.44670    1.000
    C79      C        0.98430    0.74290    0.40030    1.000
    H51      H        0.01280    0.72720    0.35340    1.000
    C80      C        0.05080    0.74800    0.47770    1.000
    H52      H        0.12310    0.73490    0.48340    1.000
    Zn5      Zn       0.77632    0.75901    0.77880    1.000
    Zn6      Zn       0.61721    0.73676    0.59166    1.000
    O21      O        0.54570    0.70250    0.67810    1.000
    O22      O        0.65610    0.71119    0.80260    1.000
    O23      O        0.32180    0.54478    0.89920    1.000
    O24      O        0.49200    0.31829    0.87430    1.000
    O25      O        0.32230    0.30522    0.90170    1.000
    O26      O        0.74010    0.69019    0.57780    1.000
    O27      O        0.84540    0.72189    0.69290    1.000
    O28      O        0.17050    0.55600    0.58990    1.000
    O29      O        0.11050    0.33432    0.74420    1.000
    O30      O        0.27210    0.32767    0.69900    1.000
    N9       N        0.51490    0.72540    0.48330    1.000
    N10      N        0.22100    0.73640    0.22890    1.000
    N11      N        0.17440    0.73830    0.14260    1.000
    N12      N        0.88040    0.74055    0.88920    1.000
    C81      C        0.57530    0.69220    0.75610    1.000
    C82      C        0.50870    0.65340    0.79430    1.000
    C83      C        0.43350    0.62490    0.74130    1.000
    H53      H        0.42340    0.63110    0.68110    1.000
    C84      C        0.37260    0.58740    0.77510    1.000
    H54      H        0.32250    0.56720    0.73840    1.000
    C85      C        0.38670    0.58010    0.86370    1.000
    C86      C        0.45990    0.60740    0.91690    1.000
    H55      H        0.46770    0.60180    0.97730    1.000
    C87      C        0.52350    0.64380    0.88270    1.000
    H56      H        0.57710    0.66220    0.91950    1.000
    C88      C        0.34380    0.49380    0.89000    1.000
    C89      C        0.26580    0.46100    0.91590    1.000
    H57      H        0.20160    0.47390    0.93570    1.000
    C90      C        0.28400    0.40900    0.91220    1.000
    H58      H        0.23190    0.38620    0.93040    1.000
    C91      C        0.37660    0.38990    0.88260    1.000
    C92      C        0.45120    0.42350    0.85710    1.000
    H59      H        0.51530    0.41060    0.83730    1.000
    C93      C        0.43580    0.47560    0.85930    1.000
    H60      H        0.48760    0.49820    0.84020    1.000
    C94      C        0.40000    0.33460    0.88470    1.000
    C95      C        0.82750    0.69140    0.62990    1.000
    C96      C        0.91610    0.65540    0.61750    1.000
    C97      C        0.90940    0.62270    0.54760    1.000
    H61      H        0.84650    0.62330    0.50560    1.000
    C98      C        0.99350    0.58930    0.53860    1.000
    H62      H        0.98920    0.56750    0.48990    1.000
    C99      C        0.08270    0.58780    0.60000    1.000
    C100     C        0.09430    0.62080    0.67010    1.000
    H63      H        0.15810    0.62000    0.71120    1.000
    C101     C        0.01010    0.65510    0.67870    1.000
    H64      H        0.01630    0.67810    0.72580    1.000
    C102     C        0.17040    0.50710    0.62470    1.000
    C103     C        0.26110    0.47810    0.61200    1.000
    H65      H        0.31730    0.49160    0.58260    1.000
    C104     C        0.26700    0.42850    0.64370    1.000
    H66      H        0.32790    0.40800    0.63510    1.000
    C105     C        0.18580    0.40820    0.68780    1.000
    C106     C        0.09830    0.43930    0.70020    1.000
    H67      H        0.04280    0.42630    0.73080    1.000
    C107     C        0.08950    0.48870    0.66940    1.000
    H68      H        0.02910    0.50930    0.67880    1.000
    C108     C        0.18760    0.35390    0.71360    1.000
    C109     C        0.41320    0.74640    0.47060    1.000
    H69      H        0.38750    0.76330    0.51760    1.000
    C110     C        0.34680    0.74450    0.39480    1.000
    H70      H        0.27530    0.75850    0.38940    1.000
    C111     C        0.38570    0.72180    0.32550    1.000
    C112     C        0.48790    0.69810    0.33670    1.000
    H71      H        0.51340    0.68010    0.29070    1.000
    C113     C        0.55020    0.70150    0.41560    1.000
    H72      H        0.62080    0.68640    0.42300    1.000
    C114     C        0.32130    0.72120    0.23790    1.000
    H73      H        0.35360    0.70990    0.18950    1.000
    C115     C        0.07730    0.72370    0.13290    1.000
    H74      H        0.04540    0.71000    0.17990    1.000
    C116     C        0.01410    0.72800    0.04750    1.000
    C117     C        0.90650    0.70950    0.03310    1.000
    H75      H        0.87650    0.69210    0.07770    1.000
    C118     C        0.84500    0.71670    0.95470    1.000
    H76      H        0.77260    0.70370    0.94670    1.000
    C119     C        0.98430    0.75710    0.90030    1.000
    H77      H        0.01280    0.77280    0.85340    1.000
    C120     C        0.05080    0.75200    0.97770    1.000
    H78      H        0.12310    0.76510    0.98340    1.000
    Zn7      Zn       0.22368    0.25901    0.72120    1.000
    Zn8      Zn       0.38279    0.23676    0.90834    1.000
    O31      O        0.45430    0.20250    0.82190    1.000
    O32      O        0.34390    0.21119    0.69740    1.000
    O33      O        0.67820    0.04478    0.60080    1.000
    O34      O        0.50800    0.81829    0.62570    1.000
    O35      O        0.67770    0.80522    0.59830    1.000
    O36      O        0.25990    0.19019    0.92220    1.000
    O37      O        0.15460    0.22189    0.80710    1.000
    O38      O        0.82950    0.05600    0.91010    1.000
    O39      O        0.88950    0.83432    0.75580    1.000
    O40      O        0.72790    0.82767    0.80100    1.000
    N13      N        0.48510    0.22540    0.01670    1.000
    N14      N        0.77900    0.23640    0.27110    1.000
    N15      N        0.82560    0.23830    0.35740    1.000
    N16      N        0.11960    0.24055    0.61080    1.000
    C121     C        0.42470    0.19220    0.74390    1.000
    C122     C        0.49130    0.15340    0.70570    1.000
    C123     C        0.56650    0.12490    0.75870    1.000
    H79      H        0.57660    0.13110    0.81890    1.000
    C124     C        0.62740    0.08740    0.72490    1.000
    H80      H        0.67750    0.06720    0.76160    1.000
    C125     C        0.61330    0.08010    0.63630    1.000
    C126     C        0.54010    0.10740    0.58310    1.000
    H81      H        0.53230    0.10180    0.52270    1.000
    C127     C        0.47650    0.14380    0.61730    1.000
    H82      H        0.42290    0.16220    0.58050    1.000
    C128     C        0.65620    0.99380    0.61000    1.000
    C129     C        0.73420    0.96100    0.58410    1.000
    H83      H        0.79840    0.97390    0.56430    1.000
    C130     C        0.71600    0.90900    0.58780    1.000
    H84      H        0.76810    0.88620    0.56960    1.000
    C131     C        0.62340    0.88990    0.61740    1.000
    C132     C        0.54880    0.92350    0.64290    1.000
    H85      H        0.48470    0.91060    0.66270    1.000
    C133     C        0.56420    0.97560    0.64070    1.000
    H86      H        0.51240    0.99820    0.65980    1.000
    C134     C        0.60000    0.83460    0.61530    1.000
    C135     C        0.17250    0.19140    0.87010    1.000
    C136     C        0.08390    0.15540    0.88250    1.000
    C137     C        0.09060    0.12270    0.95240    1.000
    H87      H        0.15350    0.12330    0.99440    1.000
    C138     C        0.00650    0.08930    0.96140    1.000
    H88      H        0.01080    0.06750    0.01010    1.000
    C139     C        0.91730    0.08780    0.90000    1.000
    C140     C        0.90570    0.12080    0.82990    1.000
    H89      H        0.84190    0.12000    0.78880    1.000
    C141     C        0.98990    0.15510    0.82130    1.000
    H90      H        0.98370    0.17810    0.77420    1.000
    C142     C        0.82960    0.00710    0.87530    1.000
    C143     C        0.73890    0.97810    0.88800    1.000
    H91      H        0.68270    0.99160    0.91740    1.000
    C144     C        0.73300    0.92850    0.85630    1.000
    H92      H        0.67210    0.90800    0.86490    1.000
    C145     C        0.81420    0.90820    0.81220    1.000
    C146     C        0.90170    0.93930    0.79980    1.000
    H93      H        0.95720    0.92630    0.76920    1.000
    C147     C        0.91050    0.98870    0.83060    1.000
    H94      H        0.97090    0.00930    0.82120    1.000
    C148     C        0.81240    0.85390    0.78640    1.000
    C149     C        0.58680    0.24640    0.02940    1.000
    H95      H        0.61250    0.26330    0.98240    1.000
    C150     C        0.65320    0.24450    0.10520    1.000
    H96      H        0.72470    0.25850    0.11060    1.000
    C151     C        0.61430    0.22180    0.17450    1.000
    C152     C        0.51210    0.19810    0.16330    1.000
    H97      H        0.48660    0.18010    0.20930    1.000
    C153     C        0.44980    0.20150    0.08440    1.000
    H98      H        0.37920    0.18640    0.07700    1.000
    C154     C        0.67870    0.22120    0.26210    1.000
    H99      H        0.64640    0.20990    0.31050    1.000
    C155     C        0.92270    0.22370    0.36710    1.000
    H100     H        0.95460    0.21000    0.32010    1.000
    C156     C        0.98590    0.22800    0.45250    1.000
    C157     C        0.09350    0.20950    0.46690    1.000
    H101     H        0.12350    0.19210    0.42230    1.000
    C158     C        0.15500    0.21670    0.54530    1.000
    H102     H        0.22740    0.20370    0.55330    1.000
    C159     C        0.01570    0.25710    0.59970    1.000
    H103     H        0.98720    0.27280    0.64660    1.000
    C160     C        0.94920    0.25200    0.52230    1.000
    H104     H        0.87690    0.26510    0.51660    1.000
