# CIF file generated by openbabel 3.1.0, see https://openbabel.org
data_I
_chemical_name_common 'image0'
_cell_length_a 9.8029
_cell_length_b 17.5059
_cell_length_c 14.6324
_cell_angle_alpha 90
_cell_angle_beta 97.1208
_cell_angle_gamma 90
_space_group_name_H-M_alt 'P 1'
_space_group_name_Hall 'P 1'
loop_
    _symmetry_equiv_pos_as_xyz
    x,y,z
loop_
    _atom_site_label
    _atom_site_type_symbol
    _atom_site_fract_x
    _atom_site_fract_y
    _atom_site_fract_z
    _atom_site_occupancy
    Eu1      Eu       0.49477    0.12162    0.15829    1.000
    Eu2      Eu       0.51936    0.83688    0.41241    1.000
    O1       O        0.58000    0.88360    0.26240    1.000
    O2       O        0.61050    0.99950    0.20110    1.000
    O3       O        0.37450    0.04620    0.26100    1.000
    O4       O        0.36280    0.93640    0.33550    1.000
    C1       C        0.41660    0.98090    0.28310    1.000
    C2       C        0.54850    0.95220    0.24520    1.000
    O5       O        0.74390    0.13490    0.15920    1.000
    O6       O        0.31500    0.17400    0.04630    1.000
    O7       O        0.32950    0.19900    0.22670    1.000
    O8       O        0.57150    0.09100    0.00950    1.000
    C3       C        0.23890    0.23470    0.17720    1.000
    C4       C        0.23320    0.22280    0.07240    1.000
    O9       O        0.41420    0.91640    0.52400    1.000
    O10      O        0.62650    0.99080    0.92690    1.000
    O11      O        0.73530    0.32570    0.09400    1.000
    O12      O        0.15110    0.27990    0.20320    1.000
    O13      O        0.14900    0.26300    0.02160    1.000
    C5       C        0.55730    0.02400    0.98140    1.000
    C6       C        0.43720    0.98650    0.52340    1.000
    O14      O        0.91050    0.20820    0.11680    1.000
    O15      O        0.56450    0.24980    0.12740    1.000
    C7       C        0.68650    0.26350    0.11610    1.000
    C8       C        0.78960    0.19550    0.13190    1.000
    O16      O        0.36990    0.03700    0.55820    1.000
    Eu3      Eu       0.00523    0.62162    0.34171    1.000
    Eu4      Eu       0.98064    0.33688    0.08759    1.000
    O17      O        0.92000    0.38360    0.23760    1.000
    O18      O        0.88950    0.49950    0.29890    1.000
    O19      O        0.12550    0.54620    0.23900    1.000
    O20      O        0.13720    0.43640    0.16450    1.000
    C9       C        0.08340    0.48090    0.21690    1.000
    C10      C        0.95150    0.45220    0.25480    1.000
    O21      O        0.75610    0.63490    0.34080    1.000
    O22      O        0.18500    0.67400    0.45370    1.000
    O23      O        0.17050    0.69900    0.27330    1.000
    O24      O        0.92850    0.59100    0.49050    1.000
    C11      C        0.26110    0.73470    0.32280    1.000
    C12      C        0.26680    0.72280    0.42760    1.000
    O25      O        0.08580    0.41640    0.97600    1.000
    O26      O        0.87350    0.49080    0.57310    1.000
    O27      O        0.76470    0.82570    0.40600    1.000
    O28      O        0.34890    0.77990    0.29680    1.000
    O29      O        0.35100    0.76300    0.47840    1.000
    C13      C        0.94270    0.52400    0.51860    1.000
    C14      C        0.06280    0.48650    0.97660    1.000
    O30      O        0.58950    0.70820    0.38320    1.000
    O31      O        0.93550    0.74980    0.37260    1.000
    C15      C        0.81350    0.76350    0.38390    1.000
    C16      C        0.71040    0.69550    0.36810    1.000
    O32      O        0.13010    0.53700    0.94180    1.000
    Eu5      Eu       0.50523    0.87838    0.84171    1.000
    Eu6      Eu       0.48064    0.16312    0.58759    1.000
    O33      O        0.42000    0.11640    0.73760    1.000
    O34      O        0.38950    0.00050    0.79890    1.000
    O35      O        0.62550    0.95380    0.73900    1.000
    O36      O        0.63720    0.06360    0.66450    1.000
    C17      C        0.58340    0.01910    0.71690    1.000
    C18      C        0.45150    0.04780    0.75480    1.000
    O37      O        0.25610    0.86510    0.84080    1.000
    O38      O        0.68500    0.82600    0.95370    1.000
    O39      O        0.67050    0.80100    0.77330    1.000
    O40      O        0.42850    0.90900    0.99050    1.000
    C19      C        0.76110    0.76530    0.82280    1.000
    C20      C        0.76680    0.77720    0.92760    1.000
    O41      O        0.58580    0.08360    0.47600    1.000
    O42      O        0.37350    0.00920    0.07310    1.000
    O43      O        0.26470    0.67430    0.90600    1.000
    O44      O        0.84890    0.72010    0.79680    1.000
    O45      O        0.85100    0.73700    0.97840    1.000
    C21      C        0.44270    0.97600    0.01860    1.000
    C22      C        0.56280    0.01350    0.47660    1.000
    O46      O        0.08950    0.79180    0.88320    1.000
    O47      O        0.43550    0.75020    0.87260    1.000
    C23      C        0.31350    0.73650    0.88390    1.000
    C24      C        0.21040    0.80450    0.86810    1.000
    O48      O        0.63010    0.96300    0.44180    1.000
    Eu7      Eu       0.99477    0.37838    0.65829    1.000
    Eu8      Eu       0.01936    0.66312    0.91241    1.000
    O49      O        0.08000    0.61640    0.76240    1.000
    O50      O        0.11050    0.50050    0.70110    1.000
    O51      O        0.87450    0.45380    0.76100    1.000
    O52      O        0.86280    0.56360    0.83550    1.000
    C25      C        0.91660    0.51910    0.78310    1.000
    C26      C        0.04850    0.54780    0.74520    1.000
    O53      O        0.24390    0.36510    0.65920    1.000
    O54      O        0.81500    0.32600    0.54630    1.000
    O55      O        0.82950    0.30100    0.72670    1.000
    O56      O        0.07150    0.40900    0.50950    1.000
    C27      C        0.73890    0.26530    0.67720    1.000
    C28      C        0.73320    0.27720    0.57240    1.000
    O57      O        0.91420    0.58360    0.02400    1.000
    O58      O        0.12650    0.50920    0.42690    1.000
    O59      O        0.23530    0.17430    0.59400    1.000
    O60      O        0.65110    0.22010    0.70320    1.000
    O61      O        0.64900    0.23700    0.52160    1.000
    C29      C        0.05730    0.47600    0.48140    1.000
    C30      C        0.93720    0.51350    0.02340    1.000
    O62      O        0.41050    0.29180    0.61680    1.000
    O63      O        0.06450    0.25020    0.62740    1.000
    C31      C        0.18650    0.23650    0.61610    1.000
    C32      C        0.28960    0.30450    0.63190    1.000
    O64      O        0.86990    0.46300    0.05820    1.000
