# CIF file generated by openbabel 3.1.0, see https://openbabel.org
data_I
_chemical_name_common 'image0'
_cell_length_a 9.162
_cell_length_b 9.291
_cell_length_c 16.504
_cell_angle_alpha 75.038
_cell_angle_beta 75.244
_cell_angle_gamma 83.867
_space_group_name_H-M_alt 'P 1'
_space_group_name_Hall 'P 1'
loop_
    _symmetry_equiv_pos_as_xyz
    x,y,z
loop_
    _atom_site_label
    _atom_site_type_symbol
    _atom_site_fract_x
    _atom_site_fract_y
    _atom_site_fract_z
    _atom_site_occupancy
    P1       P        0.66579    0.81787    0.47416    1.000
    P2       P        0.31216    0.58007    0.69359    1.000
    P3       P        0.13504    0.66364    0.46786    1.000
    P4       P        0.02170    0.73660    0.99889    1.000
    P5       P        0.14661    0.54750    0.22546    1.000
    Al1      Al       0.31406    0.84940    0.53419    1.000
    Al2      Al       0.89516    0.61120    0.37486    1.000
    Al3      Al       0.66642    0.55460    0.63477    1.000
    Al4      Al       0.07020    0.54860    0.85970    1.000
    O1       O        0.49880    0.83990    0.47490    1.000
    O2       O        0.01830    0.71120    0.41660    1.000
    O3       O        0.07130    0.56340    0.55490    1.000
    O4       O        0.19220    0.80350    0.48040    1.000
    O5       O        0.73210    0.97040    0.45510    1.000
    O6       O        0.47840    0.53330    0.68760    1.000
    O7       O        0.07400    0.43840    0.19340    1.000
    O8       O        0.74230    0.73830    0.40410    1.000
    O9       O        0.68430    0.72790    0.56400    1.000
    O10      O        0.23690    0.46920    0.66870    1.000
    O11      O        0.24340    0.58780    0.78760    1.000
    O12      O        0.27330    0.58480    0.41910    1.000
    O13      O        0.02610    0.64440    0.27150    1.000
    O14      O        0.30090    0.73770    0.63740    1.000
    O15      O        0.25160    0.64720    0.14900    1.000
    O16      O        0.02890    0.68610    0.91700    1.000
    O17      O        0.92130    0.62940    0.07500    1.000
    O18      O        0.23700    0.45240    0.28700    1.000
    O19      O        0.18090    0.73270    0.01100    1.000
    O20      O        0.94790    0.89030    0.98780    1.000
    P6       P        0.33421    0.18213    0.52584    1.000
    P7       P        0.68784    0.41993    0.30641    1.000
    P8       P        0.86496    0.33636    0.53214    1.000
    P9       P        0.97830    0.26340    0.00111    1.000
    P10      P        0.85339    0.45250    0.77454    1.000
    Al5      Al       0.68594    0.15060    0.46581    1.000
    Al6      Al       0.10484    0.38880    0.62514    1.000
    Al7      Al       0.33358    0.44540    0.36523    1.000
    Al8      Al       0.92980    0.45140    0.14030    1.000
    O21      O        0.50120    0.16010    0.52510    1.000
    O22      O        0.98170    0.28880    0.58340    1.000
    O23      O        0.92870    0.43660    0.44510    1.000
    O24      O        0.80780    0.19650    0.51960    1.000
    O25      O        0.26790    0.02960    0.54490    1.000
    O26      O        0.52160    0.46670    0.31240    1.000
    O27      O        0.92600    0.56160    0.80660    1.000
    O28      O        0.25770    0.26170    0.59590    1.000
    O29      O        0.31570    0.27210    0.43600    1.000
    O30      O        0.76310    0.53080    0.33130    1.000
    O31      O        0.75660    0.41220    0.21240    1.000
    O32      O        0.72670    0.41520    0.58090    1.000
    O33      O        0.97390    0.35560    0.72850    1.000
    O34      O        0.69910    0.26230    0.36260    1.000
    O35      O        0.74840    0.35280    0.85100    1.000
    O36      O        0.97110    0.31390    0.08300    1.000
    O37      O        0.07870    0.37060    0.92500    1.000
    O38      O        0.76300    0.54760    0.71300    1.000
    O39      O        0.81910    0.26730    0.98900    1.000
    O40      O        0.05210    0.10970    0.01220    1.000
