# CIF file generated by openbabel 3.1.0, see https://openbabel.org
data_I
_chemical_name_common 'image0'
_cell_length_a 15.7991
_cell_length_b 11.4257
_cell_length_c 18.7582
_cell_angle_alpha 90
_cell_angle_beta 103.367
_cell_angle_gamma 90
_space_group_name_H-M_alt 'P 1'
_space_group_name_Hall 'P 1'
loop_
    _symmetry_equiv_pos_as_xyz
    x,y,z
loop_
    _atom_site_label
    _atom_site_type_symbol
    _atom_site_fract_x
    _atom_site_fract_y
    _atom_site_fract_z
    _atom_site_occupancy
    Zn1      Zn       0.57898    0.68356    0.19397    1.000
    Zn2      Zn       0.77375    0.80838    0.17013    1.000
    Zn3      Zn       0.58296    0.09088    0.99966    1.000
    O1       O        0.43500    0.06830    0.15127    1.000
    O2       O        0.51453    0.20479    0.92611    1.000
    O3       O        0.45451    0.38014    0.90704    1.000
    O4       O        0.64041    0.01903    0.09969    1.000
    O5       O        0.77018    0.99103    0.17200    1.000
    O6       O        0.87804    0.55106    0.24218    1.000
    O7       O        0.76215    0.62597    0.16366    1.000
    N1       N        0.58381    0.25067    0.07509    1.000
    N2       N        0.29582    0.88780    0.03091    1.000
    N3       N        0.89142    0.82480    0.13143    1.000
    N4       N        0.46241    0.70200    0.22267    1.000
    C1       C        0.71241    0.05640    0.13721    1.000
    C2       C        0.73172    0.18610    0.14186    1.000
    C3       C        0.81675    0.21610    0.17775    1.000
    H1       H        0.85790    0.15530    0.19320    1.000
    C4       C        0.84304    0.33090    0.19149    1.000
    H2       H        0.90120    0.34880    0.21610    1.000
    C5       C        0.78297    0.41940    0.16865    1.000
    C6       C        0.69947    0.39320    0.12995    1.000
    H3       H        0.65960    0.45500    0.11330    1.000
    C7       C        0.67270    0.27780    0.11497    1.000
    C8       C        0.80908    0.54270    0.19198    1.000
    C9       C        0.53107    0.21320    0.12761    1.000
    H4       H        0.49520    0.28060    0.13610    1.000
    H5       H        0.57150    0.19460    0.17500    1.000
    C10      C        0.47107    0.10880    0.10530    1.000
    C11      C        0.54125    0.34570    0.02571    1.000
    C12      C        0.50007    0.30520    0.94836    1.000
    C13      C        0.26110    0.78310    0.03943    1.000
    H6       H        0.29410    0.71540    0.03430    1.000
    C14      C        0.18180    0.76740    0.05493    1.000
    H7       H        0.16030    0.69080    0.05970    1.000
    C15      C        0.13220    0.86620    0.06372    1.000
    C16      C        0.16740    0.97370    0.05530    1.000
    H8       H        0.13620    0.04290    0.06090    1.000
    C17      C        0.24760    0.98150    0.03882    1.000
    H9       H        0.27000    0.05710    0.03270    1.000
    C18      C        0.04709    0.85310    0.08440    1.000
    C19      C        0.99460    0.75590    0.06510    1.000
    H10      H        0.01050    0.69660    0.03520    1.000
    C20      C        0.91820    0.74540    0.08990    1.000
    H11      H        0.88350    0.67750    0.07640    1.000
    C21      C        0.94210    0.92020    0.14790    1.000
    H12      H        0.92420    0.97930    0.17690    1.000
    C22      C        0.01800    0.93760    0.12550    1.000
    H13      H        0.05040    0.00760    0.13830    1.000
    C23      C        0.41440    0.80020    0.21059    1.000
    H14      H        0.43870    0.86780    0.19370    1.000
    C24      C        0.33200    0.80650    0.22169    1.000
    H15      H        0.30030    0.87780    0.21320    1.000
    C25      C        0.29515    0.70850    0.24533    1.000
    C26      C        0.34530    0.60750    0.25940    1.000
    H16      H        0.32120    0.53830    0.27460    1.000
    C27      C        0.42860    0.60713    0.25147    1.000
    H17      H        0.46400    0.54020    0.26610    1.000
    H18      H        0.49930    0.37940    0.05190    1.000
    H19      H        0.58190    0.40160    0.02430    1.000
    O8       O        0.66100    0.81008    0.21680    1.000
    O9       O        0.46111    0.07168    0.03900    1.000
    Zn4      Zn       0.92102    0.68356    0.30603    1.000
    Zn5      Zn       0.72625    0.80838    0.32987    1.000
    Zn6      Zn       0.91704    0.09088    0.50035    1.000
    O10      O        0.06500    0.06830    0.34873    1.000
    O11      O        0.98547    0.20479    0.57389    1.000
    O12      O        0.04549    0.38014    0.59296    1.000
    O13      O        0.85959    0.01903    0.40031    1.000
    O14      O        0.72982    0.99103    0.32800    1.000
    O15      O        0.62196    0.55106    0.25782    1.000
    O16      O        0.73785    0.62597    0.33634    1.000
    N5       N        0.91619    0.25067    0.42491    1.000
    N6       N        0.20418    0.88780    0.46909    1.000
    N7       N        0.60858    0.82480    0.36857    1.000
    N8       N        0.03759    0.70200    0.27733    1.000
    C28      C        0.78759    0.05640    0.36279    1.000
    C29      C        0.76828    0.18610    0.35814    1.000
    C30      C        0.68325    0.21610    0.32225    1.000
    H20      H        0.64210    0.15530    0.30680    1.000
    C31      C        0.65696    0.33090    0.30851    1.000
    H21      H        0.59880    0.34880    0.28390    1.000
    C32      C        0.71703    0.41940    0.33135    1.000
    C33      C        0.80053    0.39320    0.37005    1.000
    H22      H        0.84040    0.45500    0.38670    1.000
    C34      C        0.82730    0.27780    0.38503    1.000
    C35      C        0.69092    0.54270    0.30802    1.000
    C36      C        0.96893    0.21320    0.37239    1.000
    H23      H        0.00480    0.28060    0.36390    1.000
    H24      H        0.92850    0.19460    0.32500    1.000
    C37      C        0.02893    0.10880    0.39470    1.000
    C38      C        0.95875    0.34570    0.47429    1.000
    C39      C        0.99993    0.30520    0.55164    1.000
    C40      C        0.23890    0.78310    0.46057    1.000
    H25      H        0.20590    0.71540    0.46570    1.000
    C41      C        0.31820    0.76740    0.44507    1.000
    H26      H        0.33970    0.69080    0.44030    1.000
    C42      C        0.36780    0.86620    0.43628    1.000
    C43      C        0.33260    0.97370    0.44470    1.000
    H27      H        0.36380    0.04290    0.43910    1.000
    C44      C        0.25240    0.98150    0.46118    1.000
    H28      H        0.23000    0.05710    0.46730    1.000
    C45      C        0.45291    0.85310    0.41560    1.000
    C46      C        0.50540    0.75590    0.43490    1.000
    H29      H        0.48950    0.69660    0.46480    1.000
    C47      C        0.58180    0.74540    0.41010    1.000
    H30      H        0.61650    0.67750    0.42360    1.000
    C48      C        0.55790    0.92020    0.35210    1.000
    H31      H        0.57580    0.97930    0.32310    1.000
    C49      C        0.48200    0.93760    0.37450    1.000
    H32      H        0.44960    0.00760    0.36170    1.000
    C50      C        0.08560    0.80020    0.28941    1.000
    H33      H        0.06130    0.86780    0.30630    1.000
    C51      C        0.16800    0.80650    0.27831    1.000
    H34      H        0.19970    0.87780    0.28680    1.000
    C52      C        0.20485    0.70850    0.25467    1.000
    C53      C        0.15470    0.60750    0.24060    1.000
    H35      H        0.17880    0.53830    0.22540    1.000
    C54      C        0.07140    0.60713    0.24853    1.000
    H36      H        0.03600    0.54020    0.23390    1.000
    H37      H        0.00070    0.37940    0.44810    1.000
    H38      H        0.91810    0.40160    0.47570    1.000
    O17      O        0.83900    0.81008    0.28320    1.000
    O18      O        0.03889    0.07168    0.46100    1.000
    Zn7      Zn       0.42102    0.31644    0.80604    1.000
    Zn8      Zn       0.22625    0.19162    0.82987    1.000
    Zn9      Zn       0.41704    0.90912    0.00035    1.000
    O19      O        0.56500    0.93170    0.84873    1.000
    O20      O        0.48547    0.79521    0.07389    1.000
    O21      O        0.54549    0.61986    0.09296    1.000
    O22      O        0.35959    0.98097    0.90031    1.000
    O23      O        0.22982    0.00897    0.82800    1.000
    O24      O        0.12196    0.44894    0.75782    1.000
    O25      O        0.23785    0.37403    0.83634    1.000
    N9       N        0.41619    0.74933    0.92491    1.000
    N10      N        0.70418    0.11220    0.96909    1.000
    N11      N        0.10858    0.17520    0.86857    1.000
    N12      N        0.53759    0.29800    0.77733    1.000
    C55      C        0.28759    0.94360    0.86279    1.000
    C56      C        0.26828    0.81390    0.85814    1.000
    C57      C        0.18325    0.78390    0.82225    1.000
    H39      H        0.14210    0.84470    0.80680    1.000
    C58      C        0.15696    0.66910    0.80851    1.000
    H40      H        0.09880    0.65120    0.78390    1.000
    C59      C        0.21703    0.58060    0.83135    1.000
    C60      C        0.30053    0.60680    0.87005    1.000
    H41      H        0.34040    0.54500    0.88670    1.000
    C61      C        0.32730    0.72220    0.88503    1.000
    C62      C        0.19092    0.45730    0.80802    1.000
    C63      C        0.46893    0.78680    0.87239    1.000
    H42      H        0.50480    0.71940    0.86390    1.000
    H43      H        0.42850    0.80540    0.82500    1.000
    C64      C        0.52893    0.89120    0.89470    1.000
    C65      C        0.45875    0.65430    0.97429    1.000
    C66      C        0.49993    0.69480    0.05164    1.000
    C67      C        0.73890    0.21690    0.96057    1.000
    H44      H        0.70590    0.28460    0.96570    1.000
    C68      C        0.81820    0.23260    0.94507    1.000
    H45      H        0.83970    0.30920    0.94030    1.000
    C69      C        0.86780    0.13380    0.93628    1.000
    C70      C        0.83260    0.02630    0.94470    1.000
    H46      H        0.86380    0.95710    0.93910    1.000
    C71      C        0.75240    0.01850    0.96118    1.000
    H47      H        0.73000    0.94290    0.96730    1.000
    C72      C        0.95291    0.14690    0.91560    1.000
    C73      C        0.00540    0.24410    0.93490    1.000
    H48      H        0.98950    0.30340    0.96480    1.000
    C74      C        0.08180    0.25460    0.91010    1.000
    H49      H        0.11650    0.32250    0.92360    1.000
    C75      C        0.05790    0.07980    0.85210    1.000
    H50      H        0.07580    0.02070    0.82310    1.000
    C76      C        0.98200    0.06240    0.87450    1.000
    H51      H        0.94960    0.99240    0.86170    1.000
    C77      C        0.58560    0.19980    0.78941    1.000
    H52      H        0.56130    0.13220    0.80630    1.000
    C78      C        0.66800    0.19350    0.77831    1.000
    H53      H        0.69970    0.12220    0.78680    1.000
    C79      C        0.70485    0.29150    0.75467    1.000
    C80      C        0.65470    0.39250    0.74060    1.000
    H54      H        0.67880    0.46170    0.72540    1.000
    C81      C        0.57140    0.39287    0.74853    1.000
    H55      H        0.53600    0.45980    0.73390    1.000
    H56      H        0.50070    0.62060    0.94810    1.000
    H57      H        0.41810    0.59840    0.97570    1.000
    O26      O        0.33900    0.18992    0.78320    1.000
    O27      O        0.53889    0.92832    0.96100    1.000
    Zn10     Zn       0.07898    0.31644    0.69397    1.000
    Zn11     Zn       0.27375    0.19162    0.67013    1.000
    Zn12     Zn       0.08296    0.90912    0.49965    1.000
    O28      O        0.93500    0.93170    0.65127    1.000
    O29      O        0.01453    0.79521    0.42611    1.000
    O30      O        0.95451    0.61986    0.40704    1.000
    O31      O        0.14041    0.98097    0.59969    1.000
    O32      O        0.27018    0.00897    0.67200    1.000
    O33      O        0.37804    0.44894    0.74218    1.000
    O34      O        0.26215    0.37403    0.66366    1.000
    N13      N        0.08381    0.74933    0.57509    1.000
    N14      N        0.79582    0.11220    0.53091    1.000
    N15      N        0.39142    0.17520    0.63143    1.000
    N16      N        0.96241    0.29800    0.72267    1.000
    C82      C        0.21241    0.94360    0.63721    1.000
    C83      C        0.23172    0.81390    0.64186    1.000
    C84      C        0.31675    0.78390    0.67775    1.000
    H58      H        0.35790    0.84470    0.69320    1.000
    C85      C        0.34304    0.66910    0.69149    1.000
    H59      H        0.40120    0.65120    0.71610    1.000
    C86      C        0.28297    0.58060    0.66865    1.000
    C87      C        0.19947    0.60680    0.62995    1.000
    H60      H        0.15960    0.54500    0.61330    1.000
    C88      C        0.17270    0.72220    0.61497    1.000
    C89      C        0.30908    0.45730    0.69198    1.000
    C90      C        0.03107    0.78680    0.62761    1.000
    H61      H        0.99520    0.71940    0.63610    1.000
    H62      H        0.07150    0.80540    0.67500    1.000
    C91      C        0.97107    0.89120    0.60530    1.000
    C92      C        0.04125    0.65430    0.52571    1.000
    C93      C        0.00007    0.69480    0.44836    1.000
    C94      C        0.76110    0.21690    0.53943    1.000
    H63      H        0.79410    0.28460    0.53430    1.000
    C95      C        0.68180    0.23260    0.55493    1.000
    H64      H        0.66030    0.30920    0.55970    1.000
    C96      C        0.63220    0.13380    0.56372    1.000
    C97      C        0.66740    0.02630    0.55530    1.000
    H65      H        0.63620    0.95710    0.56090    1.000
    C98      C        0.74760    0.01850    0.53882    1.000
    H66      H        0.77000    0.94290    0.53270    1.000
    C99      C        0.54709    0.14690    0.58440    1.000
    C100     C        0.49460    0.24410    0.56510    1.000
    H67      H        0.51050    0.30340    0.53520    1.000
    C101     C        0.41820    0.25460    0.58990    1.000
    H68      H        0.38350    0.32250    0.57640    1.000
    C102     C        0.44210    0.07980    0.64790    1.000
    H69      H        0.42420    0.02070    0.67690    1.000
    C103     C        0.51800    0.06240    0.62550    1.000
    H70      H        0.55040    0.99240    0.63830    1.000
    C104     C        0.91440    0.19980    0.71059    1.000
    H71      H        0.93870    0.13220    0.69370    1.000
    C105     C        0.83200    0.19350    0.72169    1.000
    H72      H        0.80030    0.12220    0.71320    1.000
    C106     C        0.79515    0.29150    0.74533    1.000
    C107     C        0.84530    0.39250    0.75940    1.000
    H73      H        0.82120    0.46170    0.77460    1.000
    C108     C        0.92860    0.39287    0.75147    1.000
    H74      H        0.96400    0.45980    0.76610    1.000
    H75      H        0.99930    0.62060    0.55190    1.000
    H76      H        0.08190    0.59840    0.52430    1.000
    O35      O        0.16100    0.18992    0.71680    1.000
    O36      O        0.96111    0.92832    0.53900    1.000
