# CIF file generated by openbabel 3.1.0, see https://openbabel.org
data_I
_chemical_name_common 'image0'
_cell_length_a 26.956
_cell_length_b 26.956
_cell_length_c 6.965
_cell_angle_alpha 90
_cell_angle_beta 90
_cell_angle_gamma 120
_space_group_name_H-M_alt 'P 1'
_space_group_name_Hall 'P 1'
loop_
    _symmetry_equiv_pos_as_xyz
    x,y,z
loop_
    _atom_site_label
    _atom_site_type_symbol
    _atom_site_fract_x
    _atom_site_fract_y
    _atom_site_fract_z
    _atom_site_occupancy
    Cu1      Cu       0.79043    0.67912    0.07219    1.000
    O1       O        0.82151    0.62811    0.04260    1.000
    O2       O        0.76300    0.73310    0.08070    1.000
    O3       O        0.72050    0.77060    0.91470    1.000
    N1       N        0.75960    0.66470    0.81660    1.000
    C1       C        0.77930    0.58960    0.73430    1.000
    C2       C        0.80670    0.58820    0.90660    1.000
    C3       C        0.81890    0.54380    0.92770    1.000
    H1       H        0.83530    0.54100    0.04150    1.000
    C4       C        0.80720    0.50440    0.78480    1.000
    H2       H        0.81570    0.47530    0.80350    1.000
    C5       C        0.78300    0.50740    0.61420    1.000
    H3       H        0.77670    0.48140    0.51610    1.000
    C6       C        0.76860    0.54870    0.59030    1.000
    H4       H        0.75130    0.55000    0.47640    1.000
    C7       C        0.75900    0.62860    0.69690    1.000
    H5       H        0.74420    0.62750    0.57550    1.000
    C8       C        0.73620    0.70120    0.76140    1.000
    H6       H        0.69650    0.67770    0.72250    1.000
    H7       H        0.75760    0.72520    0.65370    1.000
    C9       C        0.74020    0.73810    0.92980    1.000
    Cu2      Cu       0.45710    0.01245    0.40552    1.000
    O4       O        0.48818    0.96144    0.37593    1.000
    O5       O        0.42967    0.06643    0.41403    1.000
    O6       O        0.38717    0.10393    0.24803    1.000
    N2       N        0.42627    0.99803    0.14993    1.000
    C10      C        0.44597    0.92293    0.06763    1.000
    C11      C        0.47337    0.92153    0.23993    1.000
    C12      C        0.48557    0.87713    0.26103    1.000
    H8       H        0.50197    0.87433    0.37483    1.000
    C13      C        0.47387    0.83773    0.11813    1.000
    H9       H        0.48237    0.80863    0.13683    1.000
    C14      C        0.44967    0.84073    0.94753    1.000
    H10      H        0.44337    0.81473    0.84943    1.000
    C15      C        0.43527    0.88203    0.92363    1.000
    H11      H        0.41797    0.88333    0.80973    1.000
    C16      C        0.42567    0.96193    0.03023    1.000
    H12      H        0.41087    0.96083    0.90883    1.000
    C17      C        0.40287    0.03453    0.09473    1.000
    H13      H        0.36317    0.01103    0.05583    1.000
    H14      H        0.42427    0.05853    0.98703    1.000
    C18      C        0.40687    0.07143    0.26313    1.000
    Cu3      Cu       0.12376    0.34579    0.73886    1.000
    O7       O        0.15484    0.29478    0.70927    1.000
    O8       O        0.09633    0.39977    0.74737    1.000
    O9       O        0.05383    0.43727    0.58137    1.000
    N3       N        0.09293    0.33137    0.48327    1.000
    C19      C        0.11263    0.25627    0.40097    1.000
    C20      C        0.14003    0.25487    0.57327    1.000
    C21      C        0.15223    0.21047    0.59437    1.000
    H15      H        0.16863    0.20767    0.70817    1.000
    C22      C        0.14053    0.17107    0.45147    1.000
    H16      H        0.14903    0.14197    0.47017    1.000
    C23      C        0.11633    0.17407    0.28087    1.000
    H17      H        0.11003    0.14807    0.18277    1.000
    C24      C        0.10193    0.21537    0.25697    1.000
    H18      H        0.08463    0.21667    0.14307    1.000
    C25      C        0.09233    0.29527    0.36357    1.000
    H19      H        0.07753    0.29417    0.24217    1.000
    C26      C        0.06953    0.36787    0.42807    1.000
    H20      H        0.02983    0.34437    0.38917    1.000
    H21      H        0.09093    0.39187    0.32037    1.000
    C27      C        0.07353    0.40477    0.59647    1.000
    Cu4      Cu       0.32088    0.11131    0.07219    1.000
    O10      O        0.37189    0.19340    0.04260    1.000
    O11      O        0.26690    0.02990    0.08070    1.000
    O12      O        0.22940    0.94990    0.91470    1.000
    N4       N        0.33530    0.09490    0.81660    1.000
    C28      C        0.41040    0.18970    0.73430    1.000
    C29      C        0.41180    0.21850    0.90660    1.000
    C30      C        0.45620    0.27510    0.92770    1.000
    H22      H        0.45900    0.29430    0.04150    1.000
    C31      C        0.49560    0.30280    0.78480    1.000
    H23      H        0.52470    0.34040    0.80350    1.000
    C32      C        0.49260    0.27560    0.61420    1.000
    H24      H        0.51860    0.29530    0.51610    1.000
    C33      C        0.45130    0.21990    0.59030    1.000
    H25      H        0.45000    0.20130    0.47640    1.000
    C34      C        0.37140    0.13040    0.69690    1.000
    H26      H        0.37250    0.11670    0.57550    1.000
    C35      C        0.29880    0.03500    0.76140    1.000
    H27      H        0.32230    0.01880    0.72250    1.000
    H28      H        0.27480    0.03240    0.65370    1.000
    C36      C        0.26190    0.00210    0.92980    1.000
    Cu5      Cu       0.98755    0.44464    0.40552    1.000
    O13      O        0.03856    0.52673    0.37593    1.000
    O14      O        0.93357    0.36323    0.41403    1.000
    O15      O        0.89607    0.28323    0.24803    1.000
    N5       N        0.00197    0.42823    0.14993    1.000
    C37      C        0.07707    0.52303    0.06763    1.000
    C38      C        0.07847    0.55183    0.23993    1.000
    C39      C        0.12287    0.60843    0.26103    1.000
    H29      H        0.12567    0.62763    0.37483    1.000
    C40      C        0.16227    0.63613    0.11813    1.000
    H30      H        0.19137    0.67373    0.13683    1.000
    C41      C        0.15927    0.60893    0.94753    1.000
    H31      H        0.18527    0.62863    0.84943    1.000
    C42      C        0.11797    0.55323    0.92363    1.000
    H32      H        0.11667    0.53463    0.80973    1.000
    C43      C        0.03807    0.46373    0.03023    1.000
    H33      H        0.03917    0.45003    0.90883    1.000
    C44      C        0.96547    0.36833    0.09473    1.000
    H34      H        0.98897    0.35213    0.05583    1.000
    H35      H        0.94147    0.36573    0.98703    1.000
    C45      C        0.92857    0.33543    0.26313    1.000
    Cu6      Cu       0.65421    0.77798    0.73886    1.000
    O16      O        0.70522    0.86007    0.70927    1.000
    O17      O        0.60023    0.69657    0.74737    1.000
    O18      O        0.56273    0.61657    0.58137    1.000
    N6       N        0.66863    0.76157    0.48327    1.000
    C46      C        0.74373    0.85637    0.40097    1.000
    C47      C        0.74513    0.88517    0.57327    1.000
    C48      C        0.78953    0.94177    0.59437    1.000
    H36      H        0.79233    0.96097    0.70817    1.000
    C49      C        0.82893    0.96947    0.45147    1.000
    H37      H        0.85803    0.00707    0.47017    1.000
    C50      C        0.82593    0.94227    0.28087    1.000
    H38      H        0.85193    0.96197    0.18277    1.000
    C51      C        0.78463    0.88657    0.25697    1.000
    H39      H        0.78333    0.86797    0.14307    1.000
    C52      C        0.70473    0.79707    0.36357    1.000
    H40      H        0.70583    0.78337    0.24217    1.000
    C53      C        0.63213    0.70167    0.42807    1.000
    H41      H        0.65563    0.68547    0.38917    1.000
    H42      H        0.60813    0.69907    0.32037    1.000
    C54      C        0.59523    0.66877    0.59647    1.000
    Cu7      Cu       0.88869    0.20957    0.07219    1.000
    O19      O        0.80660    0.17849    0.04260    1.000
    O20      O        0.97010    0.23700    0.08070    1.000
    O21      O        0.05010    0.27950    0.91470    1.000
    N7       N        0.90510    0.24040    0.81660    1.000
    C55      C        0.81030    0.22070    0.73430    1.000
    C56      C        0.78150    0.19330    0.90660    1.000
    C57      C        0.72490    0.18110    0.92770    1.000
    H43      H        0.70570    0.16470    0.04150    1.000
    C58      C        0.69720    0.19280    0.78480    1.000
    H44      H        0.65960    0.18430    0.80350    1.000
    C59      C        0.72440    0.21700    0.61420    1.000
    H45      H        0.70470    0.22330    0.51610    1.000
    C60      C        0.78010    0.23140    0.59030    1.000
    H46      H        0.79870    0.24870    0.47640    1.000
    C61      C        0.86960    0.24100    0.69690    1.000
    H47      H        0.88330    0.25580    0.57550    1.000
    C62      C        0.96500    0.26380    0.76140    1.000
    H48      H        0.98120    0.30350    0.72250    1.000
    H49      H        0.96760    0.24240    0.65370    1.000
    C63      C        0.99790    0.25980    0.92980    1.000
    Cu8      Cu       0.55536    0.54290    0.40552    1.000
    O22      O        0.47327    0.51182    0.37593    1.000
    O23      O        0.63677    0.57033    0.41403    1.000
    O24      O        0.71677    0.61283    0.24803    1.000
    N8       N        0.57177    0.57373    0.14993    1.000
    C64      C        0.47697    0.55403    0.06763    1.000
    C65      C        0.44817    0.52663    0.23993    1.000
    C66      C        0.39157    0.51443    0.26103    1.000
    H50      H        0.37237    0.49803    0.37483    1.000
    C67      C        0.36387    0.52613    0.11813    1.000
    H51      H        0.32627    0.51763    0.13683    1.000
    C68      C        0.39107    0.55033    0.94753    1.000
    H52      H        0.37137    0.55663    0.84943    1.000
    C69      C        0.44677    0.56473    0.92363    1.000
    H53      H        0.46537    0.58203    0.80973    1.000
    C70      C        0.53627    0.57433    0.03023    1.000
    H54      H        0.54997    0.58913    0.90883    1.000
    C71      C        0.63167    0.59713    0.09473    1.000
    H55      H        0.64787    0.63683    0.05583    1.000
    H56      H        0.63427    0.57573    0.98703    1.000
    C72      C        0.66457    0.59313    0.26313    1.000
    Cu9      Cu       0.22202    0.87624    0.73886    1.000
    O25      O        0.13993    0.84516    0.70927    1.000
    O26      O        0.30343    0.90367    0.74737    1.000
    O27      O        0.38343    0.94617    0.58137    1.000
    N9       N        0.23843    0.90707    0.48327    1.000
    C73      C        0.14363    0.88737    0.40097    1.000
    C74      C        0.11483    0.85997    0.57327    1.000
    C75      C        0.05823    0.84777    0.59437    1.000
    H57      H        0.03903    0.83137    0.70817    1.000
    C76      C        0.03053    0.85947    0.45147    1.000
    H58      H        0.99293    0.85097    0.47017    1.000
    C77      C        0.05773    0.88367    0.28087    1.000
    H59      H        0.03803    0.88997    0.18277    1.000
    C78      C        0.11343    0.89807    0.25697    1.000
    H60      H        0.13203    0.91537    0.14307    1.000
    C79      C        0.20293    0.90767    0.36357    1.000
    H61      H        0.21663    0.92247    0.24217    1.000
    C80      C        0.29833    0.93047    0.42807    1.000
    H62      H        0.31453    0.97017    0.38917    1.000
    H63      H        0.30093    0.90907    0.32037    1.000
    C81      C        0.33123    0.92647    0.59647    1.000
    Cu10     Cu       0.20957    0.32088    0.92781    1.000
    O28      O        0.17849    0.37189    0.95740    1.000
    O29      O        0.23700    0.26690    0.91930    1.000
    O30      O        0.27950    0.22940    0.08530    1.000
    N10      N        0.24040    0.33530    0.18340    1.000
    C82      C        0.22070    0.41040    0.26570    1.000
    C83      C        0.19330    0.41180    0.09340    1.000
    C84      C        0.18110    0.45620    0.07230    1.000
    H64      H        0.16470    0.45900    0.95850    1.000
    C85      C        0.19280    0.49560    0.21520    1.000
    H65      H        0.18430    0.52470    0.19650    1.000
    C86      C        0.21700    0.49260    0.38580    1.000
    H66      H        0.22330    0.51860    0.48390    1.000
    C87      C        0.23140    0.45130    0.40970    1.000
    H67      H        0.24870    0.45000    0.52360    1.000
    C88      C        0.24100    0.37140    0.30310    1.000
    H68      H        0.25580    0.37250    0.42450    1.000
    C89      C        0.26380    0.29880    0.23860    1.000
    H69      H        0.30350    0.32230    0.27750    1.000
    H70      H        0.24240    0.27480    0.34630    1.000
    C90      C        0.25980    0.26190    0.07020    1.000
    Cu11     Cu       0.87624    0.65421    0.26114    1.000
    O31      O        0.84516    0.70522    0.29073    1.000
    O32      O        0.90367    0.60023    0.25263    1.000
    O33      O        0.94617    0.56273    0.41863    1.000
    N11      N        0.90707    0.66863    0.51673    1.000
    C91      C        0.88737    0.74373    0.59903    1.000
    C92      C        0.85997    0.74513    0.42673    1.000
    C93      C        0.84777    0.78953    0.40563    1.000
    H71      H        0.83137    0.79233    0.29183    1.000
    C94      C        0.85947    0.82893    0.54853    1.000
    H72      H        0.85097    0.85803    0.52983    1.000
    C95      C        0.88367    0.82593    0.71913    1.000
    H73      H        0.88997    0.85193    0.81723    1.000
    C96      C        0.89807    0.78463    0.74303    1.000
    H74      H        0.91537    0.78333    0.85693    1.000
    C97      C        0.90767    0.70473    0.63643    1.000
    H75      H        0.92247    0.70583    0.75783    1.000
    C98      C        0.93047    0.63213    0.57193    1.000
    H76      H        0.97017    0.65563    0.61083    1.000
    H77      H        0.90907    0.60813    0.67963    1.000
    C99      C        0.92647    0.59523    0.40353    1.000
    Cu12     Cu       0.54290    0.98755    0.59448    1.000
    O34      O        0.51182    0.03856    0.62407    1.000
    O35      O        0.57033    0.93357    0.58597    1.000
    O36      O        0.61283    0.89607    0.75197    1.000
    N12      N        0.57373    0.00197    0.85007    1.000
    C100     C        0.55403    0.07707    0.93237    1.000
    C101     C        0.52663    0.07847    0.76007    1.000
    C102     C        0.51443    0.12287    0.73897    1.000
    H78      H        0.49803    0.12567    0.62517    1.000
    C103     C        0.52613    0.16227    0.88187    1.000
    H79      H        0.51763    0.19137    0.86317    1.000
    C104     C        0.55033    0.15927    0.05247    1.000
    H80      H        0.55663    0.18527    0.15057    1.000
    C105     C        0.56473    0.11797    0.07637    1.000
    H81      H        0.58203    0.11667    0.19027    1.000
    C106     C        0.57433    0.03807    0.96977    1.000
    H82      H        0.58913    0.03917    0.09117    1.000
    C107     C        0.59713    0.96547    0.90527    1.000
    H83      H        0.63683    0.98897    0.94417    1.000
    H84      H        0.57573    0.94147    0.01297    1.000
    C108     C        0.59313    0.92857    0.73687    1.000
    Cu13     Cu       0.67912    0.88869    0.92781    1.000
    O37      O        0.62811    0.80660    0.95740    1.000
    O38      O        0.73310    0.97010    0.91930    1.000
    O39      O        0.77060    0.05010    0.08530    1.000
    N13      N        0.66470    0.90510    0.18340    1.000
    C109     C        0.58960    0.81030    0.26570    1.000
    C110     C        0.58820    0.78150    0.09340    1.000
    C111     C        0.54380    0.72490    0.07230    1.000
    H85      H        0.54100    0.70570    0.95850    1.000
    C112     C        0.50440    0.69720    0.21520    1.000
    H86      H        0.47530    0.65960    0.19650    1.000
    C113     C        0.50740    0.72440    0.38580    1.000
    H87      H        0.48140    0.70470    0.48390    1.000
    C114     C        0.54870    0.78010    0.40970    1.000
    H88      H        0.55000    0.79870    0.52360    1.000
    C115     C        0.62860    0.86960    0.30310    1.000
    H89      H        0.62750    0.88330    0.42450    1.000
    C116     C        0.70120    0.96500    0.23860    1.000
    H90      H        0.67770    0.98120    0.27750    1.000
    H91      H        0.72520    0.96760    0.34630    1.000
    C117     C        0.73810    0.99790    0.07020    1.000
    Cu14     Cu       0.34579    0.22202    0.26114    1.000
    O40      O        0.29478    0.13993    0.29073    1.000
    O41      O        0.39977    0.30343    0.25263    1.000
    O42      O        0.43727    0.38343    0.41863    1.000
    N14      N        0.33137    0.23843    0.51673    1.000
    C118     C        0.25627    0.14363    0.59903    1.000
    C119     C        0.25487    0.11483    0.42673    1.000
    C120     C        0.21047    0.05823    0.40563    1.000
    H92      H        0.20767    0.03903    0.29183    1.000
    C121     C        0.17107    0.03053    0.54853    1.000
    H93      H        0.14197    0.99293    0.52983    1.000
    C122     C        0.17407    0.05773    0.71913    1.000
    H94      H        0.14807    0.03803    0.81723    1.000
    C123     C        0.21537    0.11343    0.74303    1.000
    H95      H        0.21667    0.13203    0.85693    1.000
    C124     C        0.29527    0.20293    0.63643    1.000
    H96      H        0.29417    0.21663    0.75783    1.000
    C125     C        0.36787    0.29833    0.57193    1.000
    H97      H        0.34437    0.31453    0.61083    1.000
    H98      H        0.39187    0.30093    0.67963    1.000
    C126     C        0.40477    0.33123    0.40353    1.000
    Cu15     Cu       0.01245    0.55536    0.59448    1.000
    O43      O        0.96144    0.47327    0.62407    1.000
    O44      O        0.06643    0.63677    0.58597    1.000
    O45      O        0.10393    0.71677    0.75197    1.000
    N15      N        0.99803    0.57177    0.85007    1.000
    C127     C        0.92293    0.47697    0.93237    1.000
    C128     C        0.92153    0.44817    0.76007    1.000
    C129     C        0.87713    0.39157    0.73897    1.000
    H99      H        0.87433    0.37237    0.62517    1.000
    C130     C        0.83773    0.36387    0.88187    1.000
    H100     H        0.80863    0.32627    0.86317    1.000
    C131     C        0.84073    0.39107    0.05247    1.000
    H101     H        0.81473    0.37137    0.15057    1.000
    C132     C        0.88203    0.44677    0.07637    1.000
    H102     H        0.88333    0.46537    0.19027    1.000
    C133     C        0.96193    0.53627    0.96977    1.000
    H103     H        0.96083    0.54997    0.09117    1.000
    C134     C        0.03453    0.63167    0.90527    1.000
    H104     H        0.01103    0.64787    0.94417    1.000
    H105     H        0.05853    0.63427    0.01297    1.000
    C135     C        0.07143    0.66457    0.73687    1.000
    Cu16     Cu       0.11131    0.79043    0.92781    1.000
    O46      O        0.19340    0.82151    0.95740    1.000
    O47      O        0.02990    0.76300    0.91930    1.000
    O48      O        0.94990    0.72050    0.08530    1.000
    N16      N        0.09490    0.75960    0.18340    1.000
    C136     C        0.18970    0.77930    0.26570    1.000
    C137     C        0.21850    0.80670    0.09340    1.000
    C138     C        0.27510    0.81890    0.07230    1.000
    H106     H        0.29430    0.83530    0.95850    1.000
    C139     C        0.30280    0.80720    0.21520    1.000
    H107     H        0.34040    0.81570    0.19650    1.000
    C140     C        0.27560    0.78300    0.38580    1.000
    H108     H        0.29530    0.77670    0.48390    1.000
    C141     C        0.21990    0.76860    0.40970    1.000
    H109     H        0.20130    0.75130    0.52360    1.000
    C142     C        0.13040    0.75900    0.30310    1.000
    H110     H        0.11670    0.74420    0.42450    1.000
    C143     C        0.03500    0.73620    0.23860    1.000
    H111     H        0.01880    0.69650    0.27750    1.000
    H112     H        0.03240    0.75760    0.34630    1.000
    C144     C        0.00210    0.74020    0.07020    1.000
    Cu17     Cu       0.77798    0.12376    0.26114    1.000
    O49      O        0.86007    0.15484    0.29073    1.000
    O50      O        0.69657    0.09633    0.25263    1.000
    O51      O        0.61657    0.05383    0.41863    1.000
    N17      N        0.76157    0.09293    0.51673    1.000
    C145     C        0.85637    0.11263    0.59903    1.000
    C146     C        0.88517    0.14003    0.42673    1.000
    C147     C        0.94177    0.15223    0.40563    1.000
    H113     H        0.96097    0.16863    0.29183    1.000
    C148     C        0.96947    0.14053    0.54853    1.000
    H114     H        0.00707    0.14903    0.52983    1.000
    C149     C        0.94227    0.11633    0.71913    1.000
    H115     H        0.96197    0.11003    0.81723    1.000
    C150     C        0.88657    0.10193    0.74303    1.000
    H116     H        0.86797    0.08463    0.85693    1.000
    C151     C        0.79707    0.09233    0.63643    1.000
    H117     H        0.78337    0.07753    0.75783    1.000
    C152     C        0.70167    0.06953    0.57193    1.000
    H118     H        0.68547    0.02983    0.61083    1.000
    H119     H        0.69907    0.09093    0.67963    1.000
    C153     C        0.66877    0.07353    0.40353    1.000
    Cu18     Cu       0.44464    0.45710    0.59448    1.000
    O52      O        0.52673    0.48818    0.62407    1.000
    O53      O        0.36323    0.42967    0.58597    1.000
    O54      O        0.28323    0.38717    0.75197    1.000
    N18      N        0.42823    0.42627    0.85007    1.000
    C154     C        0.52303    0.44597    0.93237    1.000
    C155     C        0.55183    0.47337    0.76007    1.000
    C156     C        0.60843    0.48557    0.73897    1.000
    H120     H        0.62763    0.50197    0.62517    1.000
    C157     C        0.63613    0.47387    0.88187    1.000
    H121     H        0.67373    0.48237    0.86317    1.000
    C158     C        0.60893    0.44967    0.05247    1.000
    H122     H        0.62863    0.44337    0.15057    1.000
    C159     C        0.55323    0.43527    0.07637    1.000
    H123     H        0.53463    0.41797    0.19027    1.000
    C160     C        0.46373    0.42567    0.96977    1.000
    H124     H        0.45003    0.41087    0.09117    1.000
    C161     C        0.36833    0.40287    0.90527    1.000
    H125     H        0.35213    0.36317    0.94417    1.000
    H126     H        0.36573    0.42427    0.01297    1.000
    C162     C        0.33543    0.40687    0.73687    1.000
