# CIF file generated by openbabel 3.1.0, see https://openbabel.org
data_I
_chemical_name_common 'FIPJAR_clean'
_cell_length_a 7.0688
_cell_length_b 11.4644
_cell_length_c 16.421
_cell_angle_alpha 82.92
_cell_angle_beta 77.5706
_cell_angle_gamma 72.0436
_space_group_name_H-M_alt 'P 1'
_space_group_name_Hall 'P 1'
loop_
    _symmetry_equiv_pos_as_xyz
    x,y,z
loop_
    _atom_site_label
    _atom_site_type_symbol
    _atom_site_fract_x
    _atom_site_fract_y
    _atom_site_fract_z
    _atom_site_occupancy
    Cd1      Cd       0.27149    0.75069    0.77851    1.000
    Cd2      Cd       0.80069    0.74931    0.72149    1.000
    Cd3      Cd       0.19931    0.25069    0.27851    1.000
    Cd4      Cd       0.72851    0.24931    0.22149    1.000
    H1       H        0.56840    0.64540    0.23540    1.000
    H2       H        0.43160    0.35460    0.76460    1.000
    H3       H        0.00190    0.35570    0.75630    1.000
    H4       H        0.88610    0.85570    0.25630    1.000
    H5       H        0.52400    0.54940    0.62800    1.000
    H6       H        0.47600    0.45060    0.37200    1.000
    H7       H        0.44920    0.85460    0.26460    1.000
    H8       H        0.99810    0.64430    0.24370    1.000
    H9       H        0.19090    0.56390    0.45670    1.000
    H10      H        0.55080    0.14540    0.73540    1.000
    H11      H        0.29860    0.04940    0.12800    1.000
    H12      H        0.78850    0.06390    0.95670    1.000
    H13      H        0.21150    0.93610    0.04330    1.000
    H14      H        0.11390    0.14430    0.74370    1.000
    H15      H        0.70140    0.95060    0.87200    1.000
    H16      H        0.80910    0.43610    0.54330    1.000
    C1       C        0.51440    0.52880    0.57640    1.000
    C2       C        0.61960    0.97120    0.92360    1.000
    C3       C        0.68510    0.46220    0.52560    1.000
    C4       C        0.67100    0.43450    0.44750    1.000
    C5       C        0.61000    0.13950    0.10850    1.000
    C6       C        0.08890    0.68750    0.24470    1.000
    C7       C        0.35940    0.81300    0.25820    1.000
    C8       C        0.56940    0.31300    0.75820    1.000
    C9       C        0.08200    0.00980    0.27820    1.000
    C10      C        0.32710    0.96220    0.02560    1.000
    C11      C        0.15730    0.87270    0.26470    1.000
    C12      C        0.02110    0.81250    0.25530    1.000
    C13      C        0.85800    0.36050    0.39150    1.000
    C14      C        0.91800    0.99020    0.72180    1.000
    C15      C        0.70530    0.37270    0.76470    1.000
    C16      C        0.44700    0.93450    0.94750    1.000
    C17      C        0.37000    0.49020    0.22180    1.000
    C18      C        0.84270    0.12730    0.73530    1.000
    C19      C        0.64060    0.18700    0.74180    1.000
    C20      C        0.39000    0.86050    0.89150    1.000
    C21      C        0.55300    0.06550    0.05250    1.000
    C22      C        0.38040    0.02880    0.07640    1.000
    C23      C        0.48560    0.47120    0.42360    1.000
    C24      C        0.67290    0.03780    0.97440    1.000
    C25      C        0.97890    0.18750    0.74470    1.000
    C26      C        0.43060    0.68700    0.24180    1.000
    C27      C        0.31490    0.53780    0.47440    1.000
    C28      C        0.29470    0.62730    0.23530    1.000
    C29      C        0.14200    0.63950    0.60850    1.000
    C30      C        0.32900    0.56550    0.55250    1.000
    C31      C        0.91110    0.31250    0.75530    1.000
    C32      C        0.63000    0.50980    0.77820    1.000
    O1       O        0.75980    0.17320    0.08720    1.000
    O2       O        0.16210    0.66130    0.68050    1.000
    O3       O        0.76050    0.56330    0.76570    1.000
    O4       O        0.02020    0.32680    0.41280    1.000
    O5       O        0.91050    0.06330    0.26570    1.000
    O6       O        0.19570    0.05670    0.30190    1.000
    O7       O        0.44570    0.55670    0.80190    1.000
    O8       O        0.49610    0.16130    0.18050    1.000
    O9       O        0.80430    0.94330    0.69810    1.000
    O10      O        0.24020    0.82680    0.91280    1.000
    O11      O        0.50390    0.83870    0.81950    1.000
    O12      O        0.55430    0.44330    0.19810    1.000
    O13      O        0.97980    0.67320    0.58720    1.000
    O14      O        0.08950    0.93670    0.73430    1.000
    O15      O        0.23950    0.43670    0.23430    1.000
    O16      O        0.83790    0.33870    0.31950    1.000
