# CIF file generated by openbabel 3.1.0, see https://openbabel.org
data_I
_chemical_name_common 'cg500091k_si_002_clean'
_cell_length_a 15.2445
_cell_length_b 15.2445
_cell_length_c 23.215
_cell_angle_alpha 90
_cell_angle_beta 90
_cell_angle_gamma 96.0915
_space_group_name_H-M_alt 'P 1'
_space_group_name_Hall 'P 1'
loop_
    _symmetry_equiv_pos_as_xyz
    x,y,z
loop_
    _atom_site_label
    _atom_site_type_symbol
    _atom_site_fract_x
    _atom_site_fract_y
    _atom_site_fract_z
    _atom_site_occupancy
    Co1      Co       0.29867    0.29867    0.00000    1.000
    Co2      Co       0.84573    0.26155    0.89193    1.000
    Co3      Co       0.26155    0.84573    0.10807    1.000
    Co4      Co       0.21111    0.78889    0.25000    1.000
    Co5      Co       0.74327    0.65571    0.64611    1.000
    Co6      Co       0.25673    0.34429    0.14611    1.000
    Co7      Co       0.70133    0.70133    0.50000    1.000
    Co8      Co       0.73845    0.15427    0.60807    1.000
    Co9      Co       0.34429    0.25673    0.85389    1.000
    Co10     Co       0.15427    0.73845    0.39193    1.000
    Co11     Co       0.78889    0.21111    0.75000    1.000
    Co12     Co       0.65571    0.74327    0.35389    1.000
    H1       H        0.17640    0.12000    0.68480    1.000
    H2       H        0.55820    0.34540    0.04110    1.000
    H3       H        0.85830    0.96290    0.78860    1.000
    H4       H        0.03710    0.14170    0.71140    1.000
    H5       H        0.54050    0.86510    0.13320    1.000
    H6       H        0.01740    0.66880    0.62140    1.000
    H7       H        0.52040    0.22720    0.79100    1.000
    H8       H        0.33120    0.98260    0.87860    1.000
    H9       H        0.70210    0.35010    0.07470    1.000
    H10      H        0.47960    0.77280    0.29100    1.000
    H11      H        0.88000    0.82360    0.81520    1.000
    H12      H        0.11730    0.31010    0.33980    1.000
    H13      H        0.41260    0.20020    0.06440    1.000
    H14      H        0.64990    0.29790    0.42530    1.000
    H15      H        0.27390    0.02630    0.04250    1.000
    H16      H        0.73010    0.36630    0.61250    1.000
    H17      H        0.16610    0.66730    0.59930    1.000
    H18      H        0.98260    0.33120    0.12140    1.000
    H19      H        0.96290    0.85830    0.21140    1.000
    H20      H        0.36630    0.73010    0.38750    1.000
    H21      H        0.25930    0.94430    0.34980    1.000
    H22      H        0.68990    0.88270    0.16020    1.000
    H23      H        0.83390    0.33270    0.09930    1.000
    H24      H        0.44180    0.65460    0.54110    1.000
    H25      H        0.86610    0.74870    0.35770    1.000
    H26      H        0.12000    0.17640    0.31520    1.000
    H27      H        0.13490    0.45950    0.36680    1.000
    H28      H        0.25130    0.13390    0.14230    1.000
    H29      H        0.82360    0.88000    0.18480    1.000
    H30      H        0.29790    0.64990    0.57470    1.000
    H31      H        0.34540    0.55820    0.95890    1.000
    H32      H        0.22720    0.52040    0.20900    1.000
    H33      H        0.13390    0.25130    0.85770    1.000
    H34      H        0.33270    0.83390    0.90070    1.000
    H35      H        0.02630    0.27390    0.95750    1.000
    H36      H        0.45950    0.13490    0.63320    1.000
    H37      H        0.86510    0.54050    0.86680    1.000
    H38      H        0.58740    0.79980    0.56440    1.000
    H39      H        0.66880    0.01740    0.37860    1.000
    H40      H        0.74870    0.86610    0.64230    1.000
    H41      H        0.26990    0.63370    0.11250    1.000
    H42      H        0.14170    0.03710    0.28860    1.000
    H43      H        0.35010    0.70210    0.92530    1.000
    H44      H        0.79980    0.58740    0.43560    1.000
    H45      H        0.05570    0.74070    0.15020    1.000
    H46      H        0.74070    0.05570    0.84980    1.000
    H47      H        0.20020    0.41260    0.93560    1.000
    H48      H        0.66730    0.16610    0.40070    1.000
    H49      H        0.88270    0.68990    0.83980    1.000
    H50      H        0.31010    0.11730    0.66020    1.000
    H51      H        0.65460    0.44180    0.45890    1.000
    H52      H        0.77280    0.47960    0.70900    1.000
    H53      H        0.97370    0.72610    0.45750    1.000
    H54      H        0.63370    0.26990    0.88750    1.000
    H55      H        0.94430    0.25930    0.65020    1.000
    H56      H        0.72610    0.97370    0.54250    1.000
    C1       C        0.69450    0.98090    0.45940    1.000
    C2       C        0.30550    0.01910    0.95940    1.000
    C3       C        0.14260    0.22640    0.82180    1.000
    C4       C        0.28450    0.64790    0.07450    1.000
    C5       C        0.81840    0.76120    0.74670    1.000
    C6       C        0.67690    0.12590    0.42960    1.000
    C7       C        0.14240    0.35360    0.31490    1.000
    C8       C        0.47840    0.20500    0.76420    1.000
    C9       C        0.76870    0.10830    0.86430    1.000
    C10      C        0.10830    0.76870    0.13570    1.000
    C11      C        0.15410    0.68910    0.51530    1.000
    C12      C        0.39690    0.23450    0.09510    1.000
    C13      C        0.60320    0.18060    0.69800    1.000
    C14      C        0.69470    0.88330    0.44720    1.000
    C15      C        0.66710    0.31250    0.46280    1.000
    C16      C        0.11670    0.30530    0.05280    1.000
    C17      C        0.39680    0.81940    0.19800    1.000
    C18      C        0.79850    0.93030    0.71170    1.000
    C19      C        0.68910    0.15410    0.48470    1.000
    C20      C        0.58000    0.30300    0.96180    1.000
    C21      C        0.82440    0.49280    0.78790    1.000
    C22      C        0.31250    0.66710    0.53720    1.000
    C23      C        0.97640    0.21580    0.80540    1.000
    C24      C        0.98090    0.69450    0.54060    1.000
    C25      C        0.85740    0.77360    0.32180    1.000
    C26      C        0.12590    0.67690    0.57040    1.000
    C27      C        0.98740    0.28840    0.98610    1.000
    C28      C        0.51320    0.70300    0.44260    1.000
    C29      C        0.76550    0.60310    0.40490    1.000
    C30      C        0.39780    0.67060    0.51670    1.000
    C31      C        0.33300    0.17540    0.73810    1.000
    C32      C        0.30530    0.11670    0.94720    1.000
    C33      C        0.17560    0.50720    0.28790    1.000
    C34      C        0.23880    0.18160    0.75330    1.000
    C35      C        0.30910    0.75110    0.00240    1.000
    C36      C        0.84590    0.31090    0.01530    1.000
    C37      C        0.14950    0.16690    0.28100    1.000
    C38      C        0.55740    0.85140    0.17040    1.000
    C39      C        0.79500    0.52160    0.73580    1.000
    C40      C        0.69090    0.24890    0.50240    1.000
    C41      C        0.29700    0.48680    0.05740    1.000
    C42      C        0.96250    0.32150    0.08390    1.000
    C43      C        0.20150    0.06970    0.21170    1.000
    C44      C        0.60220    0.32940    0.01670    1.000
    C45      C        0.71160    0.01260    0.51390    1.000
    C46      C        0.67060    0.39780    0.48330    1.000
    C47      C        0.24890    0.69090    0.49760    1.000
    C48      C        0.35360    0.14240    0.68510    1.000
    C49      C        0.64790    0.28450    0.92550    1.000
    C50      C        0.17540    0.33300    0.26190    1.000
    C51      C        0.93030    0.79850    0.28830    1.000
    C52      C        0.85050    0.83310    0.78100    1.000
    C53      C        0.23130    0.89170    0.36430    1.000
    C54      C        0.75110    0.30910    0.99760    1.000
    C55      C        0.32310    0.87410    0.92960    1.000
    C56      C        0.33290    0.68750    0.96280    1.000
    C57      C        0.60310    0.76550    0.59510    1.000
    C58      C        0.91550    0.83930    0.23510    1.000
    C59      C        0.16690    0.14950    0.71900    1.000
    C60      C        0.76120    0.81840    0.25330    1.000
    C61      C        0.50720    0.17560    0.71210    1.000
    C62      C        0.81940    0.39680    0.80200    1.000
    C63      C        0.83930    0.91550    0.76490    1.000
    C64      C        0.06970    0.20150    0.78830    1.000
    C65      C        0.85140    0.55740    0.82960    1.000
    C66      C        0.68750    0.33290    0.03720    1.000
    C67      C        0.48680    0.29700    0.94260    1.000
    C68      C        0.30300    0.58000    0.03820    1.000
    C69      C        0.03750    0.67850    0.58390    1.000
    C70      C        0.52160    0.79500    0.26420    1.000
    C71      C        0.18060    0.60320    0.30200    1.000
    C72      C        0.87410    0.32310    0.07040    1.000
    C73      C        0.88330    0.69470    0.55280    1.000
    C74      C        0.18160    0.23880    0.24670    1.000
    C75      C        0.32150    0.96250    0.91610    1.000
    C76      C        0.70300    0.51320    0.55740    1.000
    C77      C        0.01260    0.71160    0.48610    1.000
    C78      C        0.35210    0.71550    0.42550    1.000
    C79      C        0.85760    0.64640    0.81490    1.000
    C80      C        0.67850    0.03750    0.41610    1.000
    C81      C        0.16070    0.08450    0.26490    1.000
    C82      C        0.83310    0.85050    0.21900    1.000
    C83      C        0.77360    0.85740    0.67820    1.000
    C84      C        0.08450    0.16070    0.73510    1.000
    C85      C        0.42000    0.69700    0.46180    1.000
    C86      C        0.44260    0.14860    0.67040    1.000
    C87      C        0.69700    0.42000    0.53820    1.000
    C88      C        0.66700    0.82460    0.23810    1.000
    C89      C        0.49280    0.82440    0.21210    1.000
    C90      C        0.23450    0.39690    0.90490    1.000
    C91      C        0.28840    0.98740    0.01390    1.000
    C92      C        0.89170    0.23130    0.63570    1.000
    C93      C        0.31090    0.84590    0.98470    1.000
    C94      C        0.14860    0.44260    0.32960    1.000
    C95      C        0.78420    0.02360    0.69460    1.000
    C96      C        0.64640    0.85760    0.18510    1.000
    C97      C        0.01910    0.30550    0.04060    1.000
    C98      C        0.22640    0.14260    0.17820    1.000
    C99      C        0.71550    0.35210    0.57450    1.000
    C100     C        0.21580    0.97640    0.19460    1.000
    C101     C        0.02360    0.78420    0.30540    1.000
    C102     C        0.82460    0.66700    0.76190    1.000
    C103     C        0.20500    0.47840    0.23580    1.000
    C104     C        0.32940    0.60220    0.98330    1.000
    N1       N        0.70830    0.09850    0.52780    1.000
    N2       N        0.22540    0.21660    0.80540    1.000
    N3       N        0.09850    0.70830    0.47220    1.000
    N4       N        0.60800    0.79680    0.27820    1.000
    N5       N        0.20320    0.39200    0.22180    1.000
    N6       N        0.71370    0.26670    0.55831    1.000
    N7       N        0.77460    0.78340    0.30540    1.000
    N8       N        0.26670    0.71370    0.44169    1.000
    N9       N        0.79680    0.60800    0.72180    1.000
    N10      N        0.28630    0.73330    0.05831    1.000
    N11      N        0.21660    0.22540    0.19460    1.000
    N12      N        0.29170    0.90150    0.02780    1.000
    N13      N        0.39200    0.20320    0.77820    1.000
    N14      N        0.78340    0.77460    0.69460    1.000
    N15      N        0.73330    0.28630    0.94169    1.000
    N16      N        0.90150    0.29170    0.97220    1.000
    O1       O        0.84308    0.37832    0.85273    1.000
    O2       O        0.72270    0.66950    0.41310    1.000
    O3       O        0.27730    0.33050    0.91310    1.000
    O4       O        0.23450    0.82090    0.33720    1.000
    O5       O        0.56050    0.76690    0.63570    1.000
    O6       O        0.16490    0.28990    0.01136    1.000
    O7       O        0.19010    0.89150    0.41140    1.000
    O8       O        0.31990    0.13990    0.89589    1.000
    O9       O        0.07760    0.78840    0.26610    1.000
    O10      O        0.71940    0.53040    0.61008    1.000
    O11      O        0.78840    0.07760    0.73390    1.000
    O12      O        0.10850    0.80990    0.08860    1.000
    O13      O        0.68010    0.86010    0.39589    1.000
    O14      O        0.71010    0.83510    0.48864    1.000
    O15      O        0.23511    0.96409    0.14251    1.000
    O16      O        0.03591    0.76489    0.35749    1.000
    O17      O        0.69170    0.56810    0.51959    1.000
    O18      O        0.76690    0.56050    0.36430    1.000
    O19      O        0.21160    0.92240    0.23390    1.000
    O20      O        0.53040    0.71940    0.38992    1.000
    O21      O        0.80990    0.10850    0.91140    1.000
    O22      O        0.20640    0.65520    0.26326    1.000
    O23      O        0.30830    0.43190    0.01959    1.000
    O24      O        0.43950    0.23310    0.13570    1.000
    O25      O        0.28060    0.46960    0.11008    1.000
    O26      O        0.33050    0.27730    0.08690    1.000
    O27      O        0.15692    0.62168    0.35273    1.000
    O28      O        0.43190    0.30830    0.98041    1.000
    O29      O        0.56810    0.69170    0.48041    1.000
    O30      O        0.83510    0.71010    0.51136    1.000
    O31      O        0.79360    0.34480    0.76326    1.000
    O32      O        0.82090    0.23450    0.66280    1.000
    O33      O        0.76489    0.03591    0.64251    1.000
    O34      O        0.17910    0.76550    0.16280    1.000
    O35      O        0.28990    0.16490    0.98864    1.000
    O36      O        0.76550    0.17910    0.83720    1.000
    O37      O        0.89150    0.19010    0.58860    1.000
    O38      O        0.96409    0.23511    0.85749    1.000
    O39      O        0.23310    0.43950    0.86430    1.000
    O40      O        0.86010    0.68010    0.60411    1.000
    O41      O        0.37832    0.84308    0.14727    1.000
    O42      O        0.13990    0.31990    0.10411    1.000
    O43      O        0.65520    0.20640    0.73674    1.000
    O44      O        0.66950    0.72270    0.58690    1.000
    O45      O        0.62168    0.15692    0.64727    1.000
    O46      O        0.46960    0.28060    0.88992    1.000
    O47      O        0.92240    0.21160    0.76610    1.000
    O48      O        0.34480    0.79360    0.23674    1.000
