# CIF file generated by openbabel 3.1.0, see https://openbabel.org
data_I
_chemical_name_common 'ODELOZ_clean'
_cell_length_a 7.467
_cell_length_b 7.8816
_cell_length_c 9.3289
_cell_angle_alpha 90
_cell_angle_beta 90
_cell_angle_gamma 118.275
_space_group_name_H-M_alt 'P 1'
_space_group_name_Hall 'P 1'
loop_
    _symmetry_equiv_pos_as_xyz
    x,y,z
loop_
    _atom_site_label
    _atom_site_type_symbol
    _atom_site_fract_x
    _atom_site_fract_y
    _atom_site_fract_z
    _atom_site_occupancy
    V1       V        0.55506    0.52168    0.75000    1.000
    V2       V        0.44494    0.47832    0.25000    1.000
    V3       V        0.96662    0.52168    0.75000    1.000
    V4       V        0.03338    0.47832    0.25000    1.000
    P1       P        0.65674    0.31348    0.48400    1.000
    P2       P        0.34326    0.68652    0.98400    1.000
    P3       P        0.65674    0.31348    0.01600    1.000
    P4       P        0.34326    0.68652    0.51600    1.000
    H1       H        0.42340    0.06120    0.61980    1.000
    H2       H        0.57660    0.93880    0.11980    1.000
    H3       H        0.63780    0.06120    0.88020    1.000
    H4       H        0.36220    0.93880    0.38020    1.000
    H5       H        0.57660    0.93880    0.38020    1.000
    H6       H        0.42340    0.06120    0.88020    1.000
    H7       H        0.36220    0.93880    0.11980    1.000
    H8       H        0.63780    0.06120    0.61980    1.000
    H9       H        0.08000    0.16000    0.19200    1.000
    H10      H        0.92000    0.84000    0.69200    1.000
    H11      H        0.08000    0.16000    0.30800    1.000
    H12      H        0.92000    0.84000    0.80800    1.000
    C1       C        0.53877    0.07754    0.55850    1.000
    C2       C        0.46123    0.92246    0.05850    1.000
    C3       C        0.53877    0.07754    0.94150    1.000
    C4       C        0.46123    0.92246    0.44150    1.000
    O1       O        0.49482    0.33266    0.39904    1.000
    O2       O        0.50518    0.66734    0.89904    1.000
    O3       O        0.83784    0.33266    0.10096    1.000
    O4       O        0.16216    0.66734    0.60096    1.000
    O5       O        0.50518    0.66734    0.60096    1.000
    O6       O        0.49482    0.33266    0.10096    1.000
    O7       O        0.16216    0.66734    0.89904    1.000
    O8       O        0.83784    0.33266    0.39904    1.000
    O9       O        0.73055    0.46110    0.61055    1.000
    O10      O        0.26945    0.53890    0.11055    1.000
    O11      O        0.73055    0.46110    0.88945    1.000
    O12      O        0.26945    0.53890    0.38945    1.000
    O13      O        0.10926    0.21852    0.25000    1.000
    O14      O        0.89074    0.78148    0.75000    1.000
