# CIF file generated by openbabel 3.1.0, see https://openbabel.org
data_I
_chemical_name_common 'image0'
_cell_length_a 7.1442
_cell_length_b 19.4387
_cell_length_c 17.3114
_cell_angle_alpha 90
_cell_angle_beta 90
_cell_angle_gamma 90
_space_group_name_H-M_alt 'P 1'
_space_group_name_Hall 'P 1'
loop_
    _symmetry_equiv_pos_as_xyz
    x,y,z
loop_
    _atom_site_label
    _atom_site_type_symbol
    _atom_site_fract_x
    _atom_site_fract_y
    _atom_site_fract_z
    _atom_site_occupancy
    N1       N        0.06660    0.67796    0.19876    1.000
    N2       N        0.87460    0.67760    0.19458    1.000
    N3       N        0.98130    0.59919    0.11729    1.000
    C1       C        0.12960    0.63046    0.15152    1.000
    H1       H        0.25490    0.62000    0.14290    1.000
    C2       C        0.82510    0.62997    0.14561    1.000
    H2       H        0.70260    0.61890    0.13230    1.000
    C3       C        0.99020    0.54760    0.05727    1.000
    C4       C        0.86920    0.49260    0.05860    1.000
    H3       H        0.78130    0.48810    0.09790    1.000
    C5       C        0.11930    0.55580    0.99930    1.000
    H4       H        0.19850    0.59380    0.99920    1.000
    N4       N        0.43340    0.32204    0.69876    1.000
    N5       N        0.62540    0.32240    0.69458    1.000
    N6       N        0.51870    0.40081    0.61729    1.000
    C6       C        0.37040    0.36954    0.65152    1.000
    H5       H        0.24510    0.38000    0.64290    1.000
    C7       C        0.67490    0.37003    0.64561    1.000
    H6       H        0.79740    0.38110    0.63230    1.000
    C8       C        0.50980    0.45240    0.55727    1.000
    C9       C        0.63080    0.50740    0.55860    1.000
    H7       H        0.71870    0.51190    0.59790    1.000
    C10      C        0.38070    0.44420    0.49930    1.000
    H8       H        0.30150    0.40620    0.49920    1.000
    N7       N        0.93340    0.17796    0.80124    1.000
    N8       N        0.12540    0.17760    0.80542    1.000
    N9       N        0.01870    0.09919    0.88271    1.000
    C11      C        0.87040    0.13046    0.84848    1.000
    H9       H        0.74510    0.12000    0.85710    1.000
    C12      C        0.17490    0.12997    0.85439    1.000
    H10      H        0.29740    0.11890    0.86770    1.000
    C13      C        0.00980    0.04760    0.94273    1.000
    C14      C        0.13080    0.99260    0.94140    1.000
    H11      H        0.21870    0.98810    0.90210    1.000
    C15      C        0.88070    0.05580    0.00070    1.000
    H12      H        0.80150    0.09380    0.00080    1.000
    N10      N        0.56660    0.82204    0.30124    1.000
    N11      N        0.37460    0.82240    0.30542    1.000
    N12      N        0.48130    0.90081    0.38271    1.000
    C16      C        0.62960    0.86954    0.34848    1.000
    H13      H        0.75490    0.88000    0.35710    1.000
    C17      C        0.32510    0.87003    0.35439    1.000
    H14      H        0.20260    0.88110    0.36770    1.000
    C18      C        0.49020    0.95240    0.44273    1.000
    C19      C        0.36920    0.00740    0.44140    1.000
    H15      H        0.28130    0.01190    0.40210    1.000
    C20      C        0.61930    0.94420    0.50070    1.000
    H16      H        0.69850    0.90620    0.50080    1.000
    N13      N        0.93340    0.32204    0.80124    1.000
    N14      N        0.12540    0.32240    0.80542    1.000
    N15      N        0.01870    0.40081    0.88271    1.000
    C21      C        0.87040    0.36954    0.84848    1.000
    H17      H        0.74510    0.38000    0.85710    1.000
    C22      C        0.17490    0.37003    0.85439    1.000
    H18      H        0.29740    0.38110    0.86770    1.000
    C23      C        0.00980    0.45240    0.94273    1.000
    C24      C        0.13080    0.50740    0.94140    1.000
    H19      H        0.21870    0.51190    0.90210    1.000
    C25      C        0.88070    0.44420    0.00070    1.000
    H20      H        0.80150    0.40620    0.00080    1.000
    N16      N        0.56660    0.67796    0.30124    1.000
    N17      N        0.37460    0.67760    0.30542    1.000
    N18      N        0.48130    0.59919    0.38271    1.000
    C26      C        0.62960    0.63046    0.34848    1.000
    H21      H        0.75490    0.62000    0.35710    1.000
    C27      C        0.32510    0.62997    0.35439    1.000
    H22      H        0.20260    0.61890    0.36770    1.000
    C28      C        0.49020    0.54760    0.44273    1.000
    C29      C        0.36920    0.49260    0.44140    1.000
    H23      H        0.28130    0.48810    0.40210    1.000
    C30      C        0.61930    0.55580    0.50070    1.000
    H24      H        0.69850    0.59380    0.50080    1.000
    N19      N        0.06660    0.82204    0.19876    1.000
    N20      N        0.87460    0.82240    0.19458    1.000
    N21      N        0.98130    0.90081    0.11729    1.000
    C31      C        0.12960    0.86954    0.15152    1.000
    H25      H        0.25490    0.88000    0.14290    1.000
    C32      C        0.82510    0.87003    0.14561    1.000
    H26      H        0.70260    0.88110    0.13230    1.000
    C33      C        0.99020    0.95240    0.05727    1.000
    C34      C        0.86920    0.00740    0.05860    1.000
    H27      H        0.78130    0.01190    0.09790    1.000
    C35      C        0.11930    0.94420    0.99930    1.000
    H28      H        0.19850    0.90620    0.99920    1.000
    N22      N        0.43340    0.17796    0.69876    1.000
    N23      N        0.62540    0.17760    0.69458    1.000
    N24      N        0.51870    0.09919    0.61729    1.000
    C36      C        0.37040    0.13046    0.65152    1.000
    H29      H        0.24510    0.12000    0.64290    1.000
    C37      C        0.67490    0.12997    0.64561    1.000
    H30      H        0.79740    0.11890    0.63230    1.000
    C38      C        0.50980    0.04760    0.55727    1.000
    C39      C        0.63080    0.99260    0.55860    1.000
    H31      H        0.71870    0.98810    0.59790    1.000
    C40      C        0.38070    0.05580    0.49930    1.000
    H32      H        0.30150    0.09380    0.49920    1.000
    Cu1      Cu       0.21540    0.75000    0.25440    1.000
    Cu2      Cu       0.28460    0.25000    0.75440    1.000
    Cu3      Cu       0.78460    0.25000    0.74560    1.000
    Cu4      Cu       0.71540    0.75000    0.24560    1.000
