# CIF file generated by openbabel 3.1.0, see https://openbabel.org
data_I
_chemical_name_common 'image0'
_cell_length_a 27.978
_cell_length_b 27.978
_cell_length_c 14.9798
_cell_angle_alpha 90
_cell_angle_beta 90
_cell_angle_gamma 120
_space_group_name_H-M_alt 'P 1'
_space_group_name_Hall 'P 1'
loop_
    _symmetry_equiv_pos_as_xyz
    x,y,z
loop_
    _atom_site_label
    _atom_site_type_symbol
    _atom_site_fract_x
    _atom_site_fract_y
    _atom_site_fract_z
    _atom_site_occupancy
    Ag1      Ag       0.74308    0.12940    0.42770    1.000
    N1       N        0.80290    0.21380    0.37460    1.000
    C1       C        0.88160    0.26400    0.04940    1.000
    H1       H        0.84740    0.23070    0.04310    1.000
    C2       C        0.88490    0.30320    0.10890    1.000
    C3       C        0.80230    0.22820    0.29030    1.000
    H2       H        0.77620    0.20160    0.25050    1.000
    N2       N        0.87680    0.31940    0.31020    1.000
    C4       C        0.87930    0.30530    0.39230    1.000
    H3       H        0.90710    0.33190    0.43010    1.000
    N3       N        0.93290    0.34970    0.12370    1.000
    C5       C        0.83850    0.28060    0.25810    1.000
    N4       N        0.92380    0.27090    0.00110    1.000
    C6       C        0.97620    0.35770    0.07480    1.000
    H4       H        0.01030    0.39110    0.08180    1.000
    C7       C        0.84390    0.25410    0.42710    1.000
    H5       H        0.84770    0.24640    0.48760    1.000
    C8       C        0.97300    0.31900    0.01440    1.000
    H6       H        0.00480    0.32550    0.98180    1.000
    C9       C        0.83540    0.29500    0.16300    1.000
    H7       H        0.80130    0.26520    0.13560    1.000
    H8       H        0.83330    0.32930    0.16100    1.000
    Ag2      Ag       0.40975    0.46273    0.76103    1.000
    N5       N        0.46957    0.54713    0.70793    1.000
    C10      C        0.54827    0.59733    0.38273    1.000
    H9       H        0.51407    0.56403    0.37643    1.000
    C11      C        0.55157    0.63653    0.44223    1.000
    C12      C        0.46897    0.56153    0.62363    1.000
    H10      H        0.44287    0.53493    0.58383    1.000
    N6       N        0.54347    0.65273    0.64353    1.000
    C13      C        0.54597    0.63863    0.72563    1.000
    H11      H        0.57377    0.66523    0.76343    1.000
    N7       N        0.59957    0.68303    0.45703    1.000
    C14      C        0.50517    0.61393    0.59143    1.000
    N8       N        0.59047    0.60423    0.33443    1.000
    C15      C        0.64287    0.69103    0.40813    1.000
    H12      H        0.67697    0.72443    0.41513    1.000
    C16      C        0.51057    0.58743    0.76043    1.000
    H13      H        0.51437    0.57973    0.82093    1.000
    C17      C        0.63967    0.65233    0.34773    1.000
    H14      H        0.67147    0.65883    0.31513    1.000
    C18      C        0.50207    0.62833    0.49633    1.000
    H15      H        0.46797    0.59853    0.46893    1.000
    H16      H        0.49997    0.66263    0.49433    1.000
    Ag3      Ag       0.07641    0.79607    0.09437    1.000
    N9       N        0.13623    0.88047    0.04127    1.000
    C19      C        0.21493    0.93067    0.71607    1.000
    H17      H        0.18073    0.89737    0.70977    1.000
    C20      C        0.21823    0.96987    0.77557    1.000
    C21      C        0.13563    0.89487    0.95697    1.000
    H18      H        0.10953    0.86827    0.91717    1.000
    N10      N        0.21013    0.98607    0.97687    1.000
    C22      C        0.21263    0.97197    0.05897    1.000
    H19      H        0.24043    0.99857    0.09677    1.000
    N11      N        0.26623    0.01637    0.79037    1.000
    C23      C        0.17183    0.94727    0.92477    1.000
    N12      N        0.25713    0.93757    0.66777    1.000
    C24      C        0.30953    0.02437    0.74147    1.000
    H20      H        0.34363    0.05777    0.74847    1.000
    C25      C        0.17723    0.92077    0.09377    1.000
    H21      H        0.18103    0.91307    0.15427    1.000
    C26      C        0.30633    0.98567    0.68107    1.000
    H22      H        0.33813    0.99217    0.64847    1.000
    C27      C        0.16873    0.96167    0.82967    1.000
    H23      H        0.13463    0.93187    0.80227    1.000
    H24      H        0.16663    0.99597    0.82767    1.000
    Ag4      Ag       0.87060    0.61368    0.42770    1.000
    N13      N        0.78620    0.58910    0.37460    1.000
    C28      C        0.73600    0.61760    0.04940    1.000
    H25      H        0.76930    0.61670    0.04310    1.000
    C29      C        0.69680    0.58170    0.10890    1.000
    C30      C        0.77180    0.57410    0.29030    1.000
    H26      H        0.79840    0.57460    0.25050    1.000
    N14      N        0.68060    0.55740    0.31020    1.000
    C31      C        0.69470    0.57400    0.39230    1.000
    H27      H        0.66810    0.57520    0.43010    1.000
    N15      N        0.65030    0.58320    0.12370    1.000
    C32      C        0.71940    0.55790    0.25810    1.000
    N16      N        0.72910    0.65290    0.00110    1.000
    C33      C        0.64230    0.61850    0.07480    1.000
    H28      H        0.60890    0.61920    0.08180    1.000
    C34      C        0.74590    0.58980    0.42710    1.000
    H29      H        0.75360    0.60130    0.48760    1.000
    C35      C        0.68100    0.65400    0.01440    1.000
    H30      H        0.67450    0.67930    0.98180    1.000
    C36      C        0.70500    0.54040    0.16300    1.000
    H31      H        0.73480    0.53610    0.13560    1.000
    H32      H        0.67070    0.50400    0.16100    1.000
    Ag5      Ag       0.53727    0.94701    0.76103    1.000
    N17      N        0.45287    0.92243    0.70793    1.000
    C37      C        0.40267    0.95093    0.38273    1.000
    H33      H        0.43597    0.95003    0.37643    1.000
    C38      C        0.36347    0.91503    0.44223    1.000
    C39      C        0.43847    0.90743    0.62363    1.000
    H34      H        0.46507    0.90793    0.58383    1.000
    N18      N        0.34727    0.89073    0.64353    1.000
    C40      C        0.36137    0.90733    0.72563    1.000
    H35      H        0.33477    0.90853    0.76343    1.000
    N19      N        0.31697    0.91653    0.45703    1.000
    C41      C        0.38607    0.89123    0.59143    1.000
    N20      N        0.39577    0.98623    0.33443    1.000
    C42      C        0.30897    0.95183    0.40813    1.000
    H36      H        0.27557    0.95253    0.41513    1.000
    C43      C        0.41257    0.92313    0.76043    1.000
    H37      H        0.42027    0.93463    0.82093    1.000
    C44      C        0.34767    0.98733    0.34773    1.000
    H38      H        0.34117    0.01263    0.31513    1.000
    C45      C        0.37167    0.87373    0.49633    1.000
    H39      H        0.40147    0.86943    0.46893    1.000
    H40      H        0.33737    0.83733    0.49433    1.000
    Ag6      Ag       0.20393    0.28035    0.09437    1.000
    N21      N        0.11953    0.25577    0.04127    1.000
    C46      C        0.06933    0.28427    0.71607    1.000
    H41      H        0.10263    0.28337    0.70977    1.000
    C47      C        0.03013    0.24837    0.77557    1.000
    C48      C        0.10513    0.24077    0.95697    1.000
    H42      H        0.13173    0.24127    0.91717    1.000
    N22      N        0.01393    0.22407    0.97687    1.000
    C49      C        0.02803    0.24067    0.05897    1.000
    H43      H        0.00143    0.24187    0.09677    1.000
    N23      N        0.98363    0.24987    0.79037    1.000
    C50      C        0.05273    0.22457    0.92477    1.000
    N24      N        0.06243    0.31957    0.66777    1.000
    C51      C        0.97563    0.28517    0.74147    1.000
    H44      H        0.94223    0.28587    0.74847    1.000
    C52      C        0.07923    0.25647    0.09377    1.000
    H45      H        0.08693    0.26797    0.15427    1.000
    C53      C        0.01433    0.32067    0.68107    1.000
    H46      H        0.00783    0.34597    0.64847    1.000
    C54      C        0.03833    0.20707    0.82967    1.000
    H47      H        0.06813    0.20277    0.80227    1.000
    H48      H        0.00403    0.17067    0.82767    1.000
    Ag7      Ag       0.38632    0.25692    0.42770    1.000
    N25      N        0.41090    0.19710    0.37460    1.000
    C55      C        0.38240    0.11840    0.04940    1.000
    H49      H        0.38330    0.15260    0.04310    1.000
    C56      C        0.41830    0.11510    0.10890    1.000
    C57      C        0.42590    0.19770    0.29030    1.000
    H50      H        0.42540    0.22380    0.25050    1.000
    N26      N        0.44260    0.12320    0.31020    1.000
    C58      C        0.42600    0.12070    0.39230    1.000
    H51      H        0.42480    0.09290    0.43010    1.000
    N27      N        0.41680    0.06710    0.12370    1.000
    C59      C        0.44210    0.16150    0.25810    1.000
    N28      N        0.34710    0.07620    0.00110    1.000
    C60      C        0.38150    0.02380    0.07480    1.000
    H52      H        0.38080    0.98970    0.08180    1.000
    C61      C        0.41020    0.15610    0.42710    1.000
    H53      H        0.39870    0.15230    0.48760    1.000
    C62      C        0.34600    0.02700    0.01440    1.000
    H54      H        0.32070    0.99520    0.98180    1.000
    C63      C        0.45960    0.16460    0.16300    1.000
    H55      H        0.46390    0.19870    0.13560    1.000
    H56      H        0.49600    0.16670    0.16100    1.000
    Ag8      Ag       0.05299    0.59025    0.76103    1.000
    N29      N        0.07757    0.53043    0.70793    1.000
    C64      C        0.04907    0.45173    0.38273    1.000
    H57      H        0.04997    0.48593    0.37643    1.000
    C65      C        0.08497    0.44843    0.44223    1.000
    C66      C        0.09257    0.53103    0.62363    1.000
    H58      H        0.09207    0.55713    0.58383    1.000
    N30      N        0.10927    0.45653    0.64353    1.000
    C67      C        0.09267    0.45403    0.72563    1.000
    H59      H        0.09147    0.42623    0.76343    1.000
    N31      N        0.08347    0.40043    0.45703    1.000
    C68      C        0.10877    0.49483    0.59143    1.000
    N32      N        0.01377    0.40953    0.33443    1.000
    C69      C        0.04817    0.35713    0.40813    1.000
    H60      H        0.04747    0.32303    0.41513    1.000
    C70      C        0.07687    0.48943    0.76043    1.000
    H61      H        0.06537    0.48563    0.82093    1.000
    C71      C        0.01267    0.36033    0.34773    1.000
    H62      H        0.98737    0.32853    0.31513    1.000
    C72      C        0.12627    0.49793    0.49633    1.000
    H63      H        0.13057    0.53203    0.46893    1.000
    H64      H        0.16267    0.50003    0.49433    1.000
    Ag9      Ag       0.71965    0.92359    0.09437    1.000
    N33      N        0.74423    0.86377    0.04127    1.000
    C73      C        0.71573    0.78507    0.71607    1.000
    H65      H        0.71663    0.81927    0.70977    1.000
    C74      C        0.75163    0.78177    0.77557    1.000
    C75      C        0.75923    0.86437    0.95697    1.000
    H66      H        0.75873    0.89047    0.91717    1.000
    N34      N        0.77593    0.78987    0.97687    1.000
    C76      C        0.75933    0.78737    0.05897    1.000
    H67      H        0.75813    0.75957    0.09677    1.000
    N35      N        0.75013    0.73377    0.79037    1.000
    C77      C        0.77543    0.82817    0.92477    1.000
    N36      N        0.68043    0.74287    0.66777    1.000
    C78      C        0.71483    0.69047    0.74147    1.000
    H68      H        0.71413    0.65637    0.74847    1.000
    C79      C        0.74353    0.82277    0.09377    1.000
    H69      H        0.73203    0.81897    0.15427    1.000
    C80      C        0.67933    0.69367    0.68107    1.000
    H70      H        0.65403    0.66187    0.64847    1.000
    C81      C        0.79293    0.83127    0.82967    1.000
    H71      H        0.79723    0.86537    0.80227    1.000
    H72      H        0.82933    0.83337    0.82767    1.000
    Ag10     Ag       0.25692    0.87060    0.57230    1.000
    N37      N        0.19710    0.78620    0.62540    1.000
    C82      C        0.11840    0.73600    0.95060    1.000
    H73      H        0.15260    0.76930    0.95690    1.000
    C83      C        0.11510    0.69680    0.89110    1.000
    C84      C        0.19770    0.77180    0.70970    1.000
    H74      H        0.22380    0.79840    0.74950    1.000
    N38      N        0.12320    0.68060    0.68980    1.000
    C85      C        0.12070    0.69470    0.60770    1.000
    H75      H        0.09290    0.66810    0.56990    1.000
    N39      N        0.06710    0.65030    0.87630    1.000
    C86      C        0.16150    0.71940    0.74190    1.000
    N40      N        0.07620    0.72910    0.99890    1.000
    C87      C        0.02380    0.64230    0.92520    1.000
    H76      H        0.98970    0.60890    0.91820    1.000
    C88      C        0.15610    0.74590    0.57290    1.000
    H77      H        0.15230    0.75360    0.51240    1.000
    C89      C        0.02700    0.68100    0.98560    1.000
    H78      H        0.99520    0.67450    0.01820    1.000
    C90      C        0.16460    0.70500    0.83700    1.000
    H79      H        0.19870    0.73480    0.86440    1.000
    H80      H        0.16670    0.67070    0.83900    1.000
    Ag11     Ag       0.92359    0.20393    0.90563    1.000
    N41      N        0.86377    0.11953    0.95873    1.000
    C91      C        0.78507    0.06933    0.28393    1.000
    H81      H        0.81927    0.10263    0.29023    1.000
    C92      C        0.78177    0.03013    0.22443    1.000
    C93      C        0.86437    0.10513    0.04303    1.000
    H82      H        0.89047    0.13173    0.08283    1.000
    N42      N        0.78987    0.01393    0.02313    1.000
    C94      C        0.78737    0.02803    0.94103    1.000
    H83      H        0.75957    0.00143    0.90323    1.000
    N43      N        0.73377    0.98363    0.20963    1.000
    C95      C        0.82817    0.05273    0.07523    1.000
    N44      N        0.74287    0.06243    0.33223    1.000
    C96      C        0.69047    0.97563    0.25853    1.000
    H84      H        0.65637    0.94223    0.25153    1.000
    C97      C        0.82277    0.07923    0.90623    1.000
    H85      H        0.81897    0.08693    0.84573    1.000
    C98      C        0.69367    0.01433    0.31893    1.000
    H86      H        0.66187    0.00783    0.35153    1.000
    C99      C        0.83127    0.03833    0.17033    1.000
    H87      H        0.86537    0.06813    0.19773    1.000
    H88      H        0.83337    0.00403    0.17233    1.000
    Ag12     Ag       0.59025    0.53727    0.23897    1.000
    N45      N        0.53043    0.45287    0.29207    1.000
    C100     C        0.45173    0.40267    0.61727    1.000
    H89      H        0.48593    0.43597    0.62357    1.000
    C101     C        0.44843    0.36347    0.55777    1.000
    C102     C        0.53103    0.43847    0.37637    1.000
    H90      H        0.55713    0.46507    0.41617    1.000
    N46      N        0.45653    0.34727    0.35647    1.000
    C103     C        0.45403    0.36137    0.27437    1.000
    H91      H        0.42623    0.33477    0.23657    1.000
    N47      N        0.40043    0.31697    0.54297    1.000
    C104     C        0.49483    0.38607    0.40857    1.000
    N48      N        0.40953    0.39577    0.66557    1.000
    C105     C        0.35713    0.30897    0.59187    1.000
    H92      H        0.32303    0.27557    0.58487    1.000
    C106     C        0.48943    0.41257    0.23957    1.000
    H93      H        0.48563    0.42027    0.17907    1.000
    C107     C        0.36033    0.34767    0.65227    1.000
    H94      H        0.32853    0.34117    0.68487    1.000
    C108     C        0.49793    0.37167    0.50367    1.000
    H95      H        0.53203    0.40147    0.53107    1.000
    H96      H        0.50003    0.33737    0.50567    1.000
    Ag13     Ag       0.12940    0.38632    0.57230    1.000
    N49      N        0.21380    0.41090    0.62540    1.000
    C109     C        0.26400    0.38240    0.95060    1.000
    H97      H        0.23070    0.38330    0.95690    1.000
    C110     C        0.30320    0.41830    0.89110    1.000
    C111     C        0.22820    0.42590    0.70970    1.000
    H98      H        0.20160    0.42540    0.74950    1.000
    N50      N        0.31940    0.44260    0.68980    1.000
    C112     C        0.30530    0.42600    0.60770    1.000
    H99      H        0.33190    0.42480    0.56990    1.000
    N51      N        0.34970    0.41680    0.87630    1.000
    C113     C        0.28060    0.44210    0.74190    1.000
    N52      N        0.27090    0.34710    0.99890    1.000
    C114     C        0.35770    0.38150    0.92520    1.000
    H100     H        0.39110    0.38080    0.91820    1.000
    C115     C        0.25410    0.41020    0.57290    1.000
    H101     H        0.24640    0.39870    0.51240    1.000
    C116     C        0.31900    0.34600    0.98560    1.000
    H102     H        0.32550    0.32070    0.01820    1.000
    C117     C        0.29500    0.45960    0.83700    1.000
    H103     H        0.26520    0.46390    0.86440    1.000
    H104     H        0.32930    0.49600    0.83900    1.000
    Ag14     Ag       0.79607    0.71965    0.90563    1.000
    N53      N        0.88047    0.74423    0.95873    1.000
    C118     C        0.93067    0.71573    0.28393    1.000
    H105     H        0.89737    0.71663    0.29023    1.000
    C119     C        0.96987    0.75163    0.22443    1.000
    C120     C        0.89487    0.75923    0.04303    1.000
    H106     H        0.86827    0.75873    0.08283    1.000
    N54      N        0.98607    0.77593    0.02313    1.000
    C121     C        0.97197    0.75933    0.94103    1.000
    H107     H        0.99857    0.75813    0.90323    1.000
    N55      N        0.01637    0.75013    0.20963    1.000
    C122     C        0.94727    0.77543    0.07523    1.000
    N56      N        0.93757    0.68043    0.33223    1.000
    C123     C        0.02437    0.71483    0.25853    1.000
    H108     H        0.05777    0.71413    0.25153    1.000
    C124     C        0.92077    0.74353    0.90623    1.000
    H109     H        0.91307    0.73203    0.84573    1.000
    C125     C        0.98567    0.67933    0.31893    1.000
    H110     H        0.99217    0.65403    0.35153    1.000
    C126     C        0.96167    0.79293    0.17033    1.000
    H111     H        0.93187    0.79723    0.19773    1.000
    H112     H        0.99597    0.82933    0.17233    1.000
    Ag15     Ag       0.46273    0.05299    0.23897    1.000
    N57      N        0.54713    0.07757    0.29207    1.000
    C127     C        0.59733    0.04907    0.61727    1.000
    H113     H        0.56403    0.04997    0.62357    1.000
    C128     C        0.63653    0.08497    0.55777    1.000
    C129     C        0.56153    0.09257    0.37637    1.000
    H114     H        0.53493    0.09207    0.41617    1.000
    N58      N        0.65273    0.10927    0.35647    1.000
    C130     C        0.63863    0.09267    0.27437    1.000
    H115     H        0.66523    0.09147    0.23657    1.000
    N59      N        0.68303    0.08347    0.54297    1.000
    C131     C        0.61393    0.10877    0.40857    1.000
    N60      N        0.60423    0.01377    0.66557    1.000
    C132     C        0.69103    0.04817    0.59187    1.000
    H116     H        0.72443    0.04747    0.58487    1.000
    C133     C        0.58743    0.07687    0.23957    1.000
    H117     H        0.57973    0.06537    0.17907    1.000
    C134     C        0.65233    0.01267    0.65227    1.000
    H118     H        0.65883    0.98737    0.68487    1.000
    C135     C        0.62833    0.12627    0.50367    1.000
    H119     H        0.59853    0.13057    0.53107    1.000
    H120     H        0.66263    0.16267    0.50567    1.000
    Ag16     Ag       0.61368    0.74308    0.57230    1.000
    N61      N        0.58910    0.80290    0.62540    1.000
    C136     C        0.61760    0.88160    0.95060    1.000
    H121     H        0.61670    0.84740    0.95690    1.000
    C137     C        0.58170    0.88490    0.89110    1.000
    C138     C        0.57410    0.80230    0.70970    1.000
    H122     H        0.57460    0.77620    0.74950    1.000
    N62      N        0.55740    0.87680    0.68980    1.000
    C139     C        0.57400    0.87930    0.60770    1.000
    H123     H        0.57520    0.90710    0.56990    1.000
    N63      N        0.58320    0.93290    0.87630    1.000
    C140     C        0.55790    0.83850    0.74190    1.000
    N64      N        0.65290    0.92380    0.99890    1.000
    C141     C        0.61850    0.97620    0.92520    1.000
    H124     H        0.61920    0.01030    0.91820    1.000
    C142     C        0.58980    0.84390    0.57290    1.000
    H125     H        0.60130    0.84770    0.51240    1.000
    C143     C        0.65400    0.97300    0.98560    1.000
    H126     H        0.67930    0.00480    0.01820    1.000
    C144     C        0.54040    0.83540    0.83700    1.000
    H127     H        0.53610    0.80130    0.86440    1.000
    H128     H        0.50400    0.83330    0.83900    1.000
    Ag17     Ag       0.28035    0.07641    0.90563    1.000
    N65      N        0.25577    0.13623    0.95873    1.000
    C145     C        0.28427    0.21493    0.28393    1.000
    H129     H        0.28337    0.18073    0.29023    1.000
    C146     C        0.24837    0.21823    0.22443    1.000
    C147     C        0.24077    0.13563    0.04303    1.000
    H130     H        0.24127    0.10953    0.08283    1.000
    N66      N        0.22407    0.21013    0.02313    1.000
    C148     C        0.24067    0.21263    0.94103    1.000
    H131     H        0.24187    0.24043    0.90323    1.000
    N67      N        0.24987    0.26623    0.20963    1.000
    C149     C        0.22457    0.17183    0.07523    1.000
    N68      N        0.31957    0.25713    0.33223    1.000
    C150     C        0.28517    0.30953    0.25853    1.000
    H132     H        0.28587    0.34363    0.25153    1.000
    C151     C        0.25647    0.17723    0.90623    1.000
    H133     H        0.26797    0.18103    0.84573    1.000
    C152     C        0.32067    0.30633    0.31893    1.000
    H134     H        0.34597    0.33813    0.35153    1.000
    C153     C        0.20707    0.16873    0.17033    1.000
    H135     H        0.20277    0.13463    0.19773    1.000
    H136     H        0.17067    0.16663    0.17233    1.000
    Ag18     Ag       0.94701    0.40975    0.23897    1.000
    N69      N        0.92243    0.46957    0.29207    1.000
    C154     C        0.95093    0.54827    0.61727    1.000
    H137     H        0.95003    0.51407    0.62357    1.000
    C155     C        0.91503    0.55157    0.55777    1.000
    C156     C        0.90743    0.46897    0.37637    1.000
    H138     H        0.90793    0.44287    0.41617    1.000
    N70      N        0.89073    0.54347    0.35647    1.000
    C157     C        0.90733    0.54597    0.27437    1.000
    H139     H        0.90853    0.57377    0.23657    1.000
    N71      N        0.91653    0.59957    0.54297    1.000
    C158     C        0.89123    0.50517    0.40857    1.000
    N72      N        0.98623    0.59047    0.66557    1.000
    C159     C        0.95183    0.64287    0.59187    1.000
    H140     H        0.95253    0.67697    0.58487    1.000
    C160     C        0.92313    0.51057    0.23957    1.000
    H141     H        0.93463    0.51437    0.17907    1.000
    C161     C        0.98733    0.63967    0.65227    1.000
    H142     H        0.01263    0.67147    0.68487    1.000
    C162     C        0.87373    0.50207    0.50367    1.000
    H143     H        0.86943    0.46797    0.53107    1.000
    H144     H        0.83733    0.49997    0.50567    1.000
