# CIF file generated by openbabel 3.1.0, see https://openbabel.org
data_I
_chemical_name_common 'XICNOO02_clean'
_cell_length_a 27.662
_cell_length_b 27.662
_cell_length_c 27.662
_cell_angle_alpha 60
_cell_angle_beta 60
_cell_angle_gamma 60
_space_group_name_H-M_alt 'P 1'
_space_group_name_Hall 'P 1'
loop_
    _symmetry_equiv_pos_as_xyz
    x,y,z
loop_
    _atom_site_label
    _atom_site_type_symbol
    _atom_site_fract_x
    _atom_site_fract_y
    _atom_site_fract_z
    _atom_site_occupancy
    Zr1      Zr       0.45476    0.45475    0.98152    1.000
    Zr2      Zr       0.45476    0.45475    0.10897    1.000
    Zr3      Zr       0.98153    0.10897    0.45475    1.000
    Zr4      Zr       0.10898    0.98152    0.45475    1.000
    Zr5      Zr       0.45476    0.98152    0.10897    1.000
    Zr6      Zr       0.45476    0.10897    0.98152    1.000
    Zr7      Zr       0.98153    0.45475    0.45475    1.000
    Zr8      Zr       0.10898    0.45475    0.45475    1.000
    Zr9      Zr       0.45476    0.10897    0.45475    1.000
    Zr10     Zr       0.45476    0.98152    0.45475    1.000
    Zr11     Zr       0.98153    0.45475    0.10897    1.000
    Zr12     Zr       0.10898    0.45475    0.98152    1.000
    Zr13     Zr       0.54524    0.54525    0.01848    1.000
    Zr14     Zr       0.54524    0.54525    0.89103    1.000
    Zr15     Zr       0.89102    0.01848    0.54525    1.000
    Zr16     Zr       0.01847    0.89103    0.54525    1.000
    Zr17     Zr       0.01847    0.54525    0.89103    1.000
    Zr18     Zr       0.89102    0.54525    0.01848    1.000
    Zr19     Zr       0.54524    0.01848    0.54525    1.000
    Zr20     Zr       0.54524    0.89103    0.54525    1.000
    Zr21     Zr       0.89102    0.54525    0.54525    1.000
    Zr22     Zr       0.01847    0.54525    0.54525    1.000
    Zr23     Zr       0.54524    0.01848    0.89103    1.000
    Zr24     Zr       0.54524    0.89103    0.01848    1.000
    Zr25     Zr       0.58911    0.41089    0.00000    1.000
    Zr26     Zr       0.41089    0.58911    0.00000    1.000
    Zr27     Zr       0.00000    0.00000    0.58911    1.000
    Zr28     Zr       0.00000    0.00000    0.41089    1.000
    Zr29     Zr       0.58911    0.00000    0.00000    1.000
    Zr30     Zr       0.41089    0.00000    0.00000    1.000
    Zr31     Zr       0.00000    0.58911    0.41089    1.000
    Zr32     Zr       0.00000    0.41089    0.58911    1.000
    Zr33     Zr       0.58911    0.00000    0.41089    1.000
    Zr34     Zr       0.41089    0.00000    0.58911    1.000
    Zr35     Zr       0.00000    0.41089    0.00000    1.000
    Zr36     Zr       0.00000    0.58911    0.00000    1.000
    H1       H        0.65590    0.21990    0.13210    1.000
    H2       H        0.21990    0.65590    0.99210    1.000
    H3       H        0.13210    0.99210    0.65590    1.000
    H4       H        0.99210    0.13210    0.21990    1.000
    H5       H        0.65590    0.13210    0.99210    1.000
    H6       H        0.21990    0.99210    0.13210    1.000
    H7       H        0.13210    0.65590    0.21990    1.000
    H8       H        0.99210    0.21990    0.65590    1.000
    H9       H        0.65590    0.99210    0.21990    1.000
    H10      H        0.21990    0.13210    0.65590    1.000
    H11      H        0.13210    0.21990    0.99210    1.000
    H12      H        0.99210    0.65590    0.13210    1.000
    H13      H        0.78010    0.34410    0.86790    1.000
    H14      H        0.34410    0.78010    0.00790    1.000
    H15      H        0.00790    0.86790    0.34410    1.000
    H16      H        0.86790    0.00790    0.78010    1.000
    H17      H        0.86790    0.34410    0.00790    1.000
    H18      H        0.00790    0.78010    0.86790    1.000
    H19      H        0.34410    0.86790    0.78010    1.000
    H20      H        0.78010    0.00790    0.34410    1.000
    H21      H        0.00790    0.34410    0.78010    1.000
    H22      H        0.86790    0.78010    0.34410    1.000
    H23      H        0.78010    0.86790    0.00790    1.000
    H24      H        0.34410    0.00790    0.86790    1.000
    H25      H        0.34410    0.78010    0.86790    1.000
    H26      H        0.78010    0.34410    0.00790    1.000
    H27      H        0.86790    0.00790    0.34410    1.000
    H28      H        0.00790    0.86790    0.78010    1.000
    H29      H        0.34410    0.86790    0.00790    1.000
    H30      H        0.78010    0.00790    0.86790    1.000
    H31      H        0.86790    0.34410    0.78010    1.000
    H32      H        0.00790    0.78010    0.34410    1.000
    H33      H        0.34410    0.00790    0.78010    1.000
    H34      H        0.78010    0.86790    0.34410    1.000
    H35      H        0.86790    0.78010    0.00790    1.000
    H36      H        0.00790    0.34410    0.86790    1.000
    H37      H        0.21990    0.65590    0.13210    1.000
    H38      H        0.65590    0.21990    0.99210    1.000
    H39      H        0.99210    0.13210    0.65590    1.000
    H40      H        0.13210    0.99210    0.21990    1.000
    H41      H        0.13210    0.65590    0.99210    1.000
    H42      H        0.99210    0.21990    0.13210    1.000
    H43      H        0.65590    0.13210    0.21990    1.000
    H44      H        0.21990    0.99210    0.65590    1.000
    H45      H        0.99210    0.65590    0.21990    1.000
    H46      H        0.13210    0.21990    0.65590    1.000
    H47      H        0.21990    0.13210    0.99210    1.000
    H48      H        0.65590    0.99210    0.13210    1.000
    C1       C        0.55955    0.32625    0.13441    1.000
    C2       C        0.57598    0.26642    0.17770    1.000
    C3       C        0.62539    0.21881    0.16839    1.000
    C4       C        0.32625    0.55955    0.97979    1.000
    C5       C        0.26642    0.57598    0.97990    1.000
    C6       C        0.21881    0.62539    0.98741    1.000
    C7       C        0.13441    0.97979    0.55955    1.000
    C8       C        0.17770    0.97990    0.57598    1.000
    C9       C        0.16839    0.98741    0.62539    1.000
    C10      C        0.97979    0.13441    0.32625    1.000
    C11      C        0.97990    0.17770    0.26642    1.000
    C12      C        0.98741    0.16839    0.21881    1.000
    C13      C        0.55955    0.13441    0.97979    1.000
    C14      C        0.57598    0.17770    0.97990    1.000
    C15      C        0.62539    0.16839    0.98741    1.000
    C16      C        0.32625    0.97979    0.13441    1.000
    C17      C        0.26642    0.97990    0.17770    1.000
    C18      C        0.21881    0.98741    0.16839    1.000
    C19      C        0.13441    0.55955    0.32625    1.000
    C20      C        0.17770    0.57598    0.26642    1.000
    C21      C        0.16839    0.62539    0.21881    1.000
    C22      C        0.97979    0.32625    0.55955    1.000
    C23      C        0.97990    0.26642    0.57598    1.000
    C24      C        0.98741    0.21881    0.62539    1.000
    C25      C        0.55955    0.97979    0.32625    1.000
    C26      C        0.57598    0.97990    0.26642    1.000
    C27      C        0.62539    0.98741    0.21881    1.000
    C28      C        0.32625    0.13441    0.55955    1.000
    C29      C        0.26642    0.17770    0.57598    1.000
    C30      C        0.21881    0.16839    0.62539    1.000
    C31      C        0.13441    0.32625    0.97979    1.000
    C32      C        0.17770    0.26642    0.97990    1.000
    C33      C        0.16839    0.21881    0.98741    1.000
    C34      C        0.97979    0.55955    0.13441    1.000
    C35      C        0.97990    0.57598    0.17770    1.000
    C36      C        0.98741    0.62539    0.16839    1.000
    C37      C        0.67375    0.44045    0.86559    1.000
    C38      C        0.73358    0.42402    0.82230    1.000
    C39      C        0.78119    0.37461    0.83161    1.000
    C40      C        0.44045    0.67375    0.02021    1.000
    C41      C        0.42402    0.73358    0.02010    1.000
    C42      C        0.37461    0.78119    0.01259    1.000
    C43      C        0.02021    0.86559    0.44045    1.000
    C44      C        0.02010    0.82230    0.42402    1.000
    C45      C        0.01259    0.83161    0.37461    1.000
    C46      C        0.86559    0.02021    0.67375    1.000
    C47      C        0.82230    0.02010    0.73358    1.000
    C48      C        0.83161    0.01259    0.78119    1.000
    C49      C        0.86559    0.44045    0.02021    1.000
    C50      C        0.82230    0.42402    0.02010    1.000
    C51      C        0.83161    0.37461    0.01259    1.000
    C52      C        0.02021    0.67375    0.86559    1.000
    C53      C        0.02010    0.73358    0.82230    1.000
    C54      C        0.01259    0.78119    0.83161    1.000
    C55      C        0.44045    0.86559    0.67375    1.000
    C56      C        0.42402    0.82230    0.73358    1.000
    C57      C        0.37461    0.83161    0.78119    1.000
    C58      C        0.67375    0.02021    0.44045    1.000
    C59      C        0.73358    0.02010    0.42402    1.000
    C60      C        0.78119    0.01259    0.37461    1.000
    C61      C        0.02021    0.44045    0.67375    1.000
    C62      C        0.02010    0.42402    0.73358    1.000
    C63      C        0.01259    0.37461    0.78119    1.000
    C64      C        0.86559    0.67375    0.44045    1.000
    C65      C        0.82230    0.73358    0.42402    1.000
    C66      C        0.83161    0.78119    0.37461    1.000
    C67      C        0.67375    0.86559    0.02021    1.000
    C68      C        0.73358    0.82230    0.02010    1.000
    C69      C        0.78119    0.83161    0.01259    1.000
    C70      C        0.44045    0.02021    0.86559    1.000
    C71      C        0.42402    0.02010    0.82230    1.000
    C72      C        0.37461    0.01259    0.83161    1.000
    C73      C        0.44045    0.67375    0.86559    1.000
    C74      C        0.42402    0.73358    0.82230    1.000
    C75      C        0.37461    0.78119    0.83161    1.000
    C76      C        0.67375    0.44045    0.02021    1.000
    C77      C        0.73358    0.42402    0.02010    1.000
    C78      C        0.78119    0.37461    0.01259    1.000
    C79      C        0.86559    0.02021    0.44045    1.000
    C80      C        0.82230    0.02010    0.42402    1.000
    C81      C        0.83161    0.01259    0.37461    1.000
    C82      C        0.02021    0.86559    0.67375    1.000
    C83      C        0.02010    0.82230    0.73358    1.000
    C84      C        0.01259    0.83161    0.78119    1.000
    C85      C        0.44045    0.86559    0.02021    1.000
    C86      C        0.42402    0.82230    0.02010    1.000
    C87      C        0.37461    0.83161    0.01259    1.000
    C88      C        0.67375    0.02021    0.86559    1.000
    C89      C        0.73358    0.02010    0.82230    1.000
    C90      C        0.78119    0.01259    0.83161    1.000
    C91      C        0.86559    0.44045    0.67375    1.000
    C92      C        0.82230    0.42402    0.73358    1.000
    C93      C        0.83161    0.37461    0.78119    1.000
    C94      C        0.02021    0.67375    0.44045    1.000
    C95      C        0.02010    0.73358    0.42402    1.000
    C96      C        0.01259    0.78119    0.37461    1.000
    C97      C        0.44045    0.02021    0.67375    1.000
    C98      C        0.42402    0.02010    0.73358    1.000
    C99      C        0.37461    0.01259    0.78119    1.000
    C100     C        0.67375    0.86559    0.44045    1.000
    C101     C        0.73358    0.82230    0.42402    1.000
    C102     C        0.78119    0.83161    0.37461    1.000
    C103     C        0.86559    0.67375    0.02021    1.000
    C104     C        0.82230    0.73358    0.02010    1.000
    C105     C        0.83161    0.78119    0.01259    1.000
    C106     C        0.02021    0.44045    0.86559    1.000
    C107     C        0.02010    0.42402    0.82230    1.000
    C108     C        0.01259    0.37461    0.83161    1.000
    C109     C        0.32625    0.55955    0.13441    1.000
    C110     C        0.26642    0.57598    0.17770    1.000
    C111     C        0.21881    0.62539    0.16839    1.000
    C112     C        0.55955    0.32625    0.97979    1.000
    C113     C        0.57598    0.26642    0.97990    1.000
    C114     C        0.62539    0.21881    0.98741    1.000
    C115     C        0.97979    0.13441    0.55955    1.000
    C116     C        0.97990    0.17770    0.57598    1.000
    C117     C        0.98741    0.16839    0.62539    1.000
    C118     C        0.13441    0.97979    0.32625    1.000
    C119     C        0.17770    0.97990    0.26642    1.000
    C120     C        0.16839    0.98741    0.21881    1.000
    C121     C        0.13441    0.55955    0.97979    1.000
    C122     C        0.17770    0.57598    0.97990    1.000
    C123     C        0.16839    0.62539    0.98741    1.000
    C124     C        0.97979    0.32625    0.13441    1.000
    C125     C        0.97990    0.26642    0.17770    1.000
    C126     C        0.98741    0.21881    0.16839    1.000
    C127     C        0.55955    0.13441    0.32625    1.000
    C128     C        0.57598    0.17770    0.26642    1.000
    C129     C        0.62539    0.16839    0.21881    1.000
    C130     C        0.32625    0.97979    0.55955    1.000
    C131     C        0.26642    0.97990    0.57598    1.000
    C132     C        0.21881    0.98741    0.62539    1.000
    C133     C        0.97979    0.55955    0.32625    1.000
    C134     C        0.97990    0.57598    0.26642    1.000
    C135     C        0.98741    0.62539    0.21881    1.000
    C136     C        0.13441    0.32625    0.55955    1.000
    C137     C        0.17770    0.26642    0.57598    1.000
    C138     C        0.16839    0.21881    0.62539    1.000
    C139     C        0.32625    0.13441    0.97979    1.000
    C140     C        0.26642    0.17770    0.97990    1.000
    C141     C        0.21881    0.16839    0.98741    1.000
    C142     C        0.55955    0.97979    0.13441    1.000
    C143     C        0.57598    0.97990    0.17770    1.000
    C144     C        0.62539    0.98741    0.16839    1.000
    S1       S        0.52858    0.24878    0.24878    1.000
    S2       S        0.24878    0.52858    0.97386    1.000
    S3       S        0.24878    0.97386    0.52858    1.000
    S4       S        0.97386    0.24878    0.24878    1.000
    S5       S        0.52858    0.24878    0.97386    1.000
    S6       S        0.24878    0.97386    0.24878    1.000
    S7       S        0.24878    0.52858    0.24878    1.000
    S8       S        0.97386    0.24878    0.52858    1.000
    S9       S        0.52858    0.97386    0.24878    1.000
    S10      S        0.24878    0.24878    0.52858    1.000
    S11      S        0.24878    0.24878    0.97386    1.000
    S12      S        0.97386    0.52858    0.24878    1.000
    S13      S        0.75122    0.47142    0.75122    1.000
    S14      S        0.47142    0.75122    0.02614    1.000
    S15      S        0.02614    0.75122    0.47142    1.000
    S16      S        0.75122    0.02614    0.75122    1.000
    S17      S        0.75122    0.47142    0.02614    1.000
    S18      S        0.02614    0.75122    0.75122    1.000
    S19      S        0.47142    0.75122    0.75122    1.000
    S20      S        0.75122    0.02614    0.47142    1.000
    S21      S        0.02614    0.47142    0.75122    1.000
    S22      S        0.75122    0.75122    0.47142    1.000
    S23      S        0.75122    0.75122    0.02614    1.000
    S24      S        0.47142    0.02614    0.75122    1.000
    O1       O        0.59627    0.33529    0.08271    1.000
    O2       O        0.50970    0.36218    0.15278    1.000
    O3       O        0.33529    0.59627    0.98573    1.000
    O4       O        0.36218    0.50970    0.97534    1.000
    O5       O        0.08271    0.98573    0.59627    1.000
    O6       O        0.15278    0.97534    0.50970    1.000
    O7       O        0.98573    0.08271    0.33529    1.000
    O8       O        0.97534    0.15278    0.36218    1.000
    O9       O        0.59627    0.08271    0.98573    1.000
    O10      O        0.50970    0.15278    0.97534    1.000
    O11      O        0.33529    0.98573    0.08271    1.000
    O12      O        0.36218    0.97534    0.15278    1.000
    O13      O        0.08271    0.59627    0.33529    1.000
    O14      O        0.15278    0.50970    0.36218    1.000
    O15      O        0.98573    0.33529    0.59627    1.000
    O16      O        0.97534    0.36218    0.50970    1.000
    O17      O        0.59627    0.98573    0.33529    1.000
    O18      O        0.50970    0.97534    0.36218    1.000
    O19      O        0.33529    0.08271    0.59627    1.000
    O20      O        0.36218    0.15278    0.50970    1.000
    O21      O        0.08271    0.33529    0.98573    1.000
    O22      O        0.15278    0.36218    0.97534    1.000
    O23      O        0.98573    0.59627    0.08271    1.000
    O24      O        0.97534    0.50970    0.15278    1.000
    O25      O        0.66471    0.40373    0.91729    1.000
    O26      O        0.63782    0.49030    0.84722    1.000
    O27      O        0.40373    0.66471    0.01427    1.000
    O28      O        0.49030    0.63782    0.02466    1.000
    O29      O        0.01427    0.91729    0.40373    1.000
    O30      O        0.02466    0.84722    0.49030    1.000
    O31      O        0.91729    0.01427    0.66471    1.000
    O32      O        0.84722    0.02466    0.63782    1.000
    O33      O        0.91729    0.40373    0.01427    1.000
    O34      O        0.84722    0.49030    0.02466    1.000
    O35      O        0.01427    0.66471    0.91729    1.000
    O36      O        0.02466    0.63782    0.84722    1.000
    O37      O        0.40373    0.91729    0.66471    1.000
    O38      O        0.49030    0.84722    0.63782    1.000
    O39      O        0.66471    0.01427    0.40373    1.000
    O40      O        0.63782    0.02466    0.49030    1.000
    O41      O        0.01427    0.40373    0.66471    1.000
    O42      O        0.02466    0.49030    0.63782    1.000
    O43      O        0.91729    0.66471    0.40373    1.000
    O44      O        0.84722    0.63782    0.49030    1.000
    O45      O        0.66471    0.91729    0.01427    1.000
    O46      O        0.63782    0.84722    0.02466    1.000
    O47      O        0.40373    0.01427    0.91729    1.000
    O48      O        0.49030    0.02466    0.84722    1.000
    O49      O        0.40373    0.66471    0.91729    1.000
    O50      O        0.49030    0.63782    0.84722    1.000
    O51      O        0.66471    0.40373    0.01427    1.000
    O52      O        0.63782    0.49030    0.02466    1.000
    O53      O        0.91729    0.01427    0.40373    1.000
    O54      O        0.84722    0.02466    0.49030    1.000
    O55      O        0.01427    0.91729    0.66471    1.000
    O56      O        0.02466    0.84722    0.63782    1.000
    O57      O        0.40373    0.91729    0.01427    1.000
    O58      O        0.49030    0.84722    0.02466    1.000
    O59      O        0.66471    0.01427    0.91729    1.000
    O60      O        0.63782    0.02466    0.84722    1.000
    O61      O        0.91729    0.40373    0.66471    1.000
    O62      O        0.84722    0.49030    0.63782    1.000
    O63      O        0.01427    0.66471    0.40373    1.000
    O64      O        0.02466    0.63782    0.49030    1.000
    O65      O        0.40373    0.01427    0.66471    1.000
    O66      O        0.49030    0.02466    0.63782    1.000
    O67      O        0.66471    0.91729    0.40373    1.000
    O68      O        0.63782    0.84722    0.49030    1.000
    O69      O        0.91729    0.66471    0.01427    1.000
    O70      O        0.84722    0.63782    0.02466    1.000
    O71      O        0.01427    0.40373    0.91729    1.000
    O72      O        0.02466    0.49030    0.84722    1.000
    O73      O        0.33529    0.59627    0.08271    1.000
    O74      O        0.36218    0.50970    0.15278    1.000
    O75      O        0.59627    0.33529    0.98573    1.000
    O76      O        0.50970    0.36218    0.97534    1.000
    O77      O        0.98573    0.08271    0.59627    1.000
    O78      O        0.97534    0.15278    0.50970    1.000
    O79      O        0.08271    0.98573    0.33529    1.000
    O80      O        0.15278    0.97534    0.36218    1.000
    O81      O        0.08271    0.59627    0.98573    1.000
    O82      O        0.15278    0.50970    0.97534    1.000
    O83      O        0.98573    0.33529    0.08271    1.000
    O84      O        0.97534    0.36218    0.15278    1.000
    O85      O        0.59627    0.08271    0.33529    1.000
    O86      O        0.50970    0.15278    0.36218    1.000
    O87      O        0.33529    0.98573    0.59627    1.000
    O88      O        0.36218    0.97534    0.50970    1.000
    O89      O        0.98573    0.59627    0.33529    1.000
    O90      O        0.97534    0.50970    0.36218    1.000
    O91      O        0.08271    0.33529    0.59627    1.000
    O92      O        0.15278    0.36218    0.50970    1.000
    O93      O        0.33529    0.08271    0.98573    1.000
    O94      O        0.36218    0.15278    0.97534    1.000
    O95      O        0.59627    0.98573    0.08271    1.000
    O96      O        0.50970    0.97534    0.15278    1.000
    O97      O        0.49854    0.41186    0.04480    1.000
    O98      O        0.41186    0.49854    0.04480    1.000
    O99      O        0.04480    0.04480    0.49854    1.000
    O100     O        0.04480    0.04480    0.41186    1.000
    O101     O        0.49854    0.04480    0.04480    1.000
    O102     O        0.41186    0.04480    0.04480    1.000
    O103     O        0.04480    0.49854    0.41186    1.000
    O104     O        0.04480    0.41186    0.49854    1.000
    O105     O        0.49854    0.04480    0.41186    1.000
    O106     O        0.41186    0.04480    0.49854    1.000
    O107     O        0.04480    0.41186    0.04480    1.000
    O108     O        0.04480    0.49854    0.04480    1.000
    O109     O        0.58814    0.50146    0.95520    1.000
    O110     O        0.50146    0.58814    0.95520    1.000
    O111     O        0.95520    0.95520    0.50146    1.000
    O112     O        0.95520    0.95520    0.58814    1.000
    O113     O        0.95520    0.50146    0.95520    1.000
    O114     O        0.95520    0.58814    0.95520    1.000
    O115     O        0.50146    0.95520    0.58814    1.000
    O116     O        0.58814    0.95520    0.50146    1.000
    O117     O        0.95520    0.50146    0.58814    1.000
    O118     O        0.95520    0.58814    0.50146    1.000
    O119     O        0.58814    0.95520    0.95520    1.000
    O120     O        0.50146    0.95520    0.95520    1.000
    O121     O        0.45654    0.54346    0.93626    1.000
    O122     O        0.54346    0.45654    0.06374    1.000
    O123     O        0.93626    0.06374    0.45654    1.000
    O124     O        0.06374    0.93626    0.54346    1.000
    O125     O        0.45654    0.93626    0.06374    1.000
    O126     O        0.54346    0.06374    0.93626    1.000
    O127     O        0.93626    0.45654    0.54346    1.000
    O128     O        0.06374    0.54346    0.45654    1.000
    O129     O        0.45654    0.06374    0.54346    1.000
    O130     O        0.54346    0.93626    0.45654    1.000
    O131     O        0.93626    0.54346    0.06374    1.000
    O132     O        0.06374    0.45654    0.93626    1.000
    O133     O        0.45654    0.54346    0.06374    1.000
    O134     O        0.54346    0.45654    0.93626    1.000
    O135     O        0.93626    0.06374    0.54346    1.000
    O136     O        0.06374    0.93626    0.45654    1.000
    O137     O        0.06374    0.54346    0.93626    1.000
    O138     O        0.93626    0.45654    0.06374    1.000
    O139     O        0.54346    0.06374    0.45654    1.000
    O140     O        0.45654    0.93626    0.54346    1.000
    O141     O        0.93626    0.54346    0.45654    1.000
    O142     O        0.06374    0.45654    0.54346    1.000
    O143     O        0.45654    0.06374    0.93626    1.000
    O144     O        0.54346    0.93626    0.06374    1.000
