# CIF file generated by openbabel 3.1.0, see https://openbabel.org
data_I
_chemical_name_common 'image0'
_cell_length_a 9.0944
_cell_length_b 9.3809
_cell_length_c 9.9459
_cell_angle_alpha 84.272
_cell_angle_beta 65.442
_cell_angle_gamma 63.368
_space_group_name_H-M_alt 'P 1'
_space_group_name_Hall 'P 1'
loop_
    _symmetry_equiv_pos_as_xyz
    x,y,z
loop_
    _atom_site_label
    _atom_site_type_symbol
    _atom_site_fract_x
    _atom_site_fract_y
    _atom_site_fract_z
    _atom_site_occupancy
    Ce1      Ce       0.26787    0.49045    0.46023    1.000
    O1       O        0.03890    0.58030    0.73860    1.000
    O2       O        0.29330    0.36020    0.69970    1.000
    O3       O        0.63130    0.34740    0.44060    1.000
    O4       O        0.52020    0.20540    0.38820    1.000
    O5       O        0.10260    0.77130    0.40070    1.000
    O6       O        0.92750    0.65080    0.46840    1.000
    C1       C        0.13700    0.46560    0.78670    1.000
    C2       C        0.07590    0.45060    0.95030    1.000
    H1       H        0.15280    0.36420    0.98160    1.000
    C3       C        0.64190    0.21220    0.41210    1.000
    C4       C        0.80150    0.06550    0.40910    1.000
    H2       H        0.90550    0.07280    0.39500    1.000
    C5       C        0.80090    0.92260    0.42590    1.000
    H3       H        0.69760    0.91650    0.43600    1.000
    C6       C        0.95390    0.77410    0.42940    1.000
    Ce2      Ce       0.73213    0.50955    0.53977    1.000
    O7       O        0.96110    0.41970    0.26140    1.000
    O8       O        0.70670    0.63980    0.30030    1.000
    O9       O        0.36870    0.65260    0.55940    1.000
    O10      O        0.47980    0.79460    0.61180    1.000
    O11      O        0.89740    0.22870    0.59930    1.000
    O12      O        0.07250    0.34920    0.53160    1.000
    C7       C        0.86300    0.53440    0.21330    1.000
    C8       C        0.92410    0.54940    0.04970    1.000
    H4       H        0.84720    0.63580    0.01840    1.000
    C9       C        0.35810    0.78780    0.58790    1.000
    C10      C        0.19850    0.93450    0.59090    1.000
    H5       H        0.09450    0.92720    0.60500    1.000
    C11      C        0.19910    0.07740    0.57410    1.000
    H6       H        0.30240    0.08350    0.56400    1.000
    C12      C        0.04610    0.22590    0.57060    1.000
