# CIF file generated by openbabel 3.1.0, see https://openbabel.org
data_I
_chemical_name_common 'image0'
_cell_length_a 9.5852
_cell_length_b 20.3941
_cell_length_c 10.5339
_cell_angle_alpha 90
_cell_angle_beta 94.125
_cell_angle_gamma 90
_space_group_name_H-M_alt 'P 1'
_space_group_name_Hall 'P 1'
loop_
    _symmetry_equiv_pos_as_xyz
    x,y,z
loop_
    _atom_site_label
    _atom_site_type_symbol
    _atom_site_fract_x
    _atom_site_fract_y
    _atom_site_fract_z
    _atom_site_occupancy
    Zn1      Zn       0.18166    0.30371    0.36352    1.000
    Zn2      Zn       0.30930    0.55121    0.40400    1.000
    Zn3      Zn       0.03663    0.56614    0.86604    1.000
    P1       P        0.09879    0.20143    0.57076    1.000
    H1       H        0.97500    0.21900    0.52900    1.000
    P2       P        0.43584    0.40727    0.42316    1.000
    H2       H        0.50200    0.43100    0.33300    1.000
    P3       P        0.16209    0.55819    0.14032    1.000
    H3       H        0.11900    0.62500    0.14840    1.000
    P4       P        0.11013    0.62036    0.59332    1.000
    H4       H        0.18700    0.67000    0.58260    1.000
    O1       O        0.10000    0.12705    0.57620    1.000
    O2       O        0.12830    0.23341    0.69870    1.000
    O3       O        0.19900    0.22414    0.47400    1.000
    O4       O        0.35950    0.34745    0.37000    1.000
    O5       O        0.54500    0.38941    0.52870    1.000
    O6       O        0.34020    0.46133    0.46520    1.000
    O7       O        0.29990    0.55255    0.22000    1.000
    O8       O        0.04680    0.51686    0.19270    1.000
    O9       O        0.18030    0.54470    0.00050    1.000
    O10      O        0.14440    0.59199    0.72410    1.000
    O11      O        0.14150    0.57319    0.48880    1.000
    O12      O        0.96040    0.64229    0.56850    1.000
    Zn4      Zn       0.81834    0.80371    0.13648    1.000
    Zn5      Zn       0.69070    0.05121    0.09600    1.000
    Zn6      Zn       0.96337    0.06614    0.63396    1.000
    P5       P        0.90121    0.70143    0.92924    1.000
    H5       H        0.02500    0.71900    0.97100    1.000
    P6       P        0.56416    0.90727    0.07684    1.000
    H6       H        0.49800    0.93100    0.16700    1.000
    P7       P        0.83791    0.05819    0.35968    1.000
    H7       H        0.88100    0.12500    0.35160    1.000
    P8       P        0.88987    0.12036    0.90668    1.000
    H8       H        0.81300    0.17000    0.91740    1.000
    O13      O        0.90000    0.62705    0.92380    1.000
    O14      O        0.87170    0.73341    0.80130    1.000
    O15      O        0.80100    0.72414    0.02600    1.000
    O16      O        0.64050    0.84745    0.13000    1.000
    O17      O        0.45500    0.88941    0.97130    1.000
    O18      O        0.65980    0.96133    0.03480    1.000
    O19      O        0.70010    0.05255    0.28000    1.000
    O20      O        0.95320    0.01686    0.30730    1.000
    O21      O        0.81970    0.04470    0.49950    1.000
    O22      O        0.85560    0.09199    0.77590    1.000
    O23      O        0.85850    0.07319    0.01120    1.000
    O24      O        0.03960    0.14229    0.93150    1.000
    Zn7      Zn       0.81834    0.69629    0.63648    1.000
    Zn8      Zn       0.69070    0.44879    0.59600    1.000
    Zn9      Zn       0.96337    0.43386    0.13396    1.000
    P9       P        0.90121    0.79857    0.42924    1.000
    H9       H        0.02500    0.78100    0.47100    1.000
    P10      P        0.56416    0.59273    0.57684    1.000
    H10      H        0.49800    0.56900    0.66700    1.000
    P11      P        0.83791    0.44181    0.85968    1.000
    H11      H        0.88100    0.37500    0.85160    1.000
    P12      P        0.88987    0.37964    0.40668    1.000
    H12      H        0.81300    0.33000    0.41740    1.000
    O25      O        0.90000    0.87295    0.42380    1.000
    O26      O        0.87170    0.76659    0.30130    1.000
    O27      O        0.80100    0.77586    0.52600    1.000
    O28      O        0.64050    0.65255    0.63000    1.000
    O29      O        0.45500    0.61059    0.47130    1.000
    O30      O        0.65980    0.53867    0.53480    1.000
    O31      O        0.70010    0.44745    0.78000    1.000
    O32      O        0.95320    0.48314    0.80730    1.000
    O33      O        0.81970    0.45530    0.99950    1.000
    O34      O        0.85560    0.40801    0.27590    1.000
    O35      O        0.85850    0.42681    0.51120    1.000
    O36      O        0.03960    0.35771    0.43150    1.000
    Zn10     Zn       0.18166    0.19629    0.86352    1.000
    Zn11     Zn       0.30930    0.94879    0.90400    1.000
    Zn12     Zn       0.03663    0.93386    0.36604    1.000
    P13      P        0.09879    0.29857    0.07076    1.000
    H13      H        0.97500    0.28100    0.02900    1.000
    P14      P        0.43584    0.09273    0.92316    1.000
    H14      H        0.50200    0.06900    0.83300    1.000
    P15      P        0.16209    0.94181    0.64032    1.000
    H15      H        0.11900    0.87500    0.64840    1.000
    P16      P        0.11013    0.87964    0.09332    1.000
    H16      H        0.18700    0.83000    0.08260    1.000
    O37      O        0.10000    0.37295    0.07620    1.000
    O38      O        0.12830    0.26659    0.19870    1.000
    O39      O        0.19900    0.27586    0.97400    1.000
    O40      O        0.35950    0.15255    0.87000    1.000
    O41      O        0.54500    0.11059    0.02870    1.000
    O42      O        0.34020    0.03867    0.96520    1.000
    O43      O        0.29990    0.94745    0.72000    1.000
    O44      O        0.04680    0.98314    0.69270    1.000
    O45      O        0.18030    0.95530    0.50050    1.000
    O46      O        0.14440    0.90801    0.22410    1.000
    O47      O        0.14150    0.92681    0.98880    1.000
    O48      O        0.96040    0.85771    0.06850    1.000
