# CIF file generated by openbabel 3.1.0, see https://openbabel.org
data_I
_chemical_name_common 'image0'
_cell_length_a 27.156
_cell_length_b 26.242
_cell_length_c 13.2949
_cell_angle_alpha 90
_cell_angle_beta 90.57
_cell_angle_gamma 90
_space_group_name_H-M_alt 'P 1'
_space_group_name_Hall 'P 1'
loop_
    _symmetry_equiv_pos_as_xyz
    x,y,z
loop_
    _atom_site_label
    _atom_site_type_symbol
    _atom_site_fract_x
    _atom_site_fract_y
    _atom_site_fract_z
    _atom_site_occupancy
    Cd1      Cd       0.06174    0.42034    0.17877    1.000
    Cd2      Cd       0.08705    0.42014    0.87441    1.000
    N1       N        0.11380    0.37480    0.28870    1.000
    N2       N        0.14010    0.36860    0.77720    1.000
    C1       C        0.18050    0.31890    0.40510    1.000
    C2       C        0.19020    0.31110    0.63310    1.000
    C3       C        0.14240    0.31830    0.78310    1.000
    H1       H        0.12720    0.30250    0.83710    1.000
    C4       C        0.16170    0.38200    0.28360    1.000
    H2       H        0.17240    0.40710    0.23970    1.000
    C5       C        0.13210    0.31180    0.41380    1.000
    H3       H        0.12030    0.28790    0.45930    1.000
    C6       C        0.16630    0.28780    0.71360    1.000
    H4       H        0.16630    0.25250    0.72040    1.000
    C7       C        0.24810    0.25560    0.39620    1.000
    H5       H        0.24590    0.25850    0.32660    1.000
    C8       C        0.21850    0.27910    0.56010    1.000
    C9       C        0.19740    0.35600    0.33720    1.000
    H6       H        0.23070    0.36260    0.32900    1.000
    C10      C        0.18650    0.36320    0.62560    1.000
    H7       H        0.20050    0.38010    0.57140    1.000
    C11      C        0.16210    0.39030    0.69790    1.000
    H8       H        0.16070    0.42560    0.69170    1.000
    C12      C        0.21720    0.28670    0.45950    1.000
    C13      C        0.09880    0.34030    0.35430    1.000
    H9       H        0.06520    0.33470    0.36140    1.000
    S1       S        0.97948    0.40776    0.25960    1.000
    C14      C        0.97520    0.34080    0.27810    1.000
    C15      C        0.96250    0.32190    0.37290    1.000
    H10      H        0.95570    0.34470    0.42440    1.000
    C16      C        0.96000    0.27040    0.39190    1.000
    H11      H        0.95180    0.25870    0.45560    1.000
    C17      C        0.96970    0.23620    0.31490    1.000
    H12      H        0.96730    0.20140    0.32680    1.000
    C18      C        0.98310    0.25370    0.22000    1.000
    H13      H        0.99050    0.23100    0.16870    1.000
    C19      C        0.98510    0.30590    0.20430    1.000
    H14      H        0.99350    0.31780    0.14080    1.000
    S2       S        0.08078    0.36502    0.02665    1.000
    C20      C        0.13950    0.33740    0.05290    1.000
    C21      C        0.18280    0.35930    0.02730    1.000
    H15      H        0.18260    0.39100    0.99600    1.000
    C22      C        0.22760    0.33510    0.04700    1.000
    H16      H        0.25640    0.35080    0.02580    1.000
    C23      C        0.23120    0.28960    0.09580    1.000
    H17      H        0.26130    0.27490    0.11320    1.000
    C24      C        0.18710    0.26700    0.11720    1.000
    H18      H        0.18710    0.23430    0.14410    1.000
    C25      C        0.14230    0.29100    0.10050    1.000
    H19      H        0.11350    0.27540    0.12190    1.000
    Cd3      Cd       0.56174    0.92034    0.17877    1.000
    Cd4      Cd       0.58705    0.92014    0.87441    1.000
    N3       N        0.61380    0.87480    0.28870    1.000
    N4       N        0.64010    0.86860    0.77720    1.000
    C26      C        0.68050    0.81890    0.40510    1.000
    C27      C        0.69020    0.81110    0.63310    1.000
    C28      C        0.64240    0.81830    0.78310    1.000
    H20      H        0.62720    0.80250    0.83710    1.000
    C29      C        0.66170    0.88200    0.28360    1.000
    H21      H        0.67240    0.90710    0.23970    1.000
    C30      C        0.63210    0.81180    0.41380    1.000
    H22      H        0.62030    0.78790    0.45930    1.000
    C31      C        0.66630    0.78780    0.71360    1.000
    H23      H        0.66630    0.75250    0.72040    1.000
    C32      C        0.74810    0.75560    0.39620    1.000
    H24      H        0.74590    0.75850    0.32660    1.000
    C33      C        0.71850    0.77910    0.56010    1.000
    C34      C        0.69740    0.85600    0.33720    1.000
    H25      H        0.73070    0.86260    0.32900    1.000
    C35      C        0.68650    0.86320    0.62560    1.000
    H26      H        0.70050    0.88010    0.57140    1.000
    C36      C        0.66210    0.89030    0.69790    1.000
    H27      H        0.66070    0.92560    0.69170    1.000
    C37      C        0.71720    0.78670    0.45950    1.000
    C38      C        0.59880    0.84030    0.35430    1.000
    H28      H        0.56520    0.83470    0.36140    1.000
    S3       S        0.47948    0.90776    0.25960    1.000
    C39      C        0.47520    0.84080    0.27810    1.000
    C40      C        0.46250    0.82190    0.37290    1.000
    H29      H        0.45570    0.84470    0.42440    1.000
    C41      C        0.46000    0.77040    0.39190    1.000
    H30      H        0.45180    0.75870    0.45560    1.000
    C42      C        0.46970    0.73620    0.31490    1.000
    H31      H        0.46730    0.70140    0.32680    1.000
    C43      C        0.48310    0.75370    0.22000    1.000
    H32      H        0.49050    0.73100    0.16870    1.000
    C44      C        0.48510    0.80590    0.20430    1.000
    H33      H        0.49350    0.81780    0.14080    1.000
    S4       S        0.58078    0.86502    0.02665    1.000
    C45      C        0.63950    0.83740    0.05290    1.000
    C46      C        0.68280    0.85930    0.02730    1.000
    H34      H        0.68260    0.89100    0.99600    1.000
    C47      C        0.72760    0.83510    0.04700    1.000
    H35      H        0.75640    0.85080    0.02580    1.000
    C48      C        0.73120    0.78960    0.09580    1.000
    H36      H        0.76130    0.77490    0.11320    1.000
    C49      C        0.68710    0.76700    0.11720    1.000
    H37      H        0.68710    0.73430    0.14410    1.000
    C50      C        0.64230    0.79100    0.10050    1.000
    H38      H        0.61350    0.77540    0.12190    1.000
    Cd5      Cd       0.93826    0.42034    0.82123    1.000
    Cd6      Cd       0.91295    0.42014    0.12559    1.000
    N5       N        0.88620    0.37480    0.71130    1.000
    N6       N        0.85990    0.36860    0.22280    1.000
    C51      C        0.81950    0.31890    0.59490    1.000
    C52      C        0.80980    0.31110    0.36690    1.000
    C53      C        0.85760    0.31830    0.21690    1.000
    H39      H        0.87280    0.30250    0.16290    1.000
    C54      C        0.83830    0.38200    0.71640    1.000
    H40      H        0.82760    0.40710    0.76030    1.000
    C55      C        0.86790    0.31180    0.58620    1.000
    H41      H        0.87970    0.28790    0.54070    1.000
    C56      C        0.83370    0.28780    0.28640    1.000
    H42      H        0.83370    0.25250    0.27960    1.000
    C57      C        0.75190    0.25560    0.60380    1.000
    H43      H        0.75410    0.25850    0.67340    1.000
    C58      C        0.78150    0.27910    0.43990    1.000
    C59      C        0.80260    0.35600    0.66280    1.000
    H44      H        0.76930    0.36260    0.67100    1.000
    C60      C        0.81350    0.36320    0.37440    1.000
    H45      H        0.79950    0.38010    0.42860    1.000
    C61      C        0.83790    0.39030    0.30210    1.000
    H46      H        0.83930    0.42560    0.30830    1.000
    C62      C        0.78280    0.28670    0.54050    1.000
    C63      C        0.90120    0.34030    0.64570    1.000
    H47      H        0.93480    0.33470    0.63860    1.000
    S5       S        0.02052    0.40776    0.74040    1.000
    C64      C        0.02480    0.34080    0.72190    1.000
    C65      C        0.03750    0.32190    0.62710    1.000
    H48      H        0.04430    0.34470    0.57560    1.000
    C66      C        0.04000    0.27040    0.60810    1.000
    H49      H        0.04820    0.25870    0.54440    1.000
    C67      C        0.03030    0.23620    0.68510    1.000
    H50      H        0.03270    0.20140    0.67320    1.000
    C68      C        0.01690    0.25370    0.78000    1.000
    H51      H        0.00950    0.23100    0.83130    1.000
    C69      C        0.01490    0.30590    0.79570    1.000
    H52      H        0.00650    0.31780    0.85920    1.000
    S6       S        0.91922    0.36502    0.97335    1.000
    C70      C        0.86050    0.33740    0.94710    1.000
    C71      C        0.81720    0.35930    0.97270    1.000
    H53      H        0.81740    0.39100    0.00400    1.000
    C72      C        0.77240    0.33510    0.95300    1.000
    H54      H        0.74360    0.35080    0.97420    1.000
    C73      C        0.76880    0.28960    0.90420    1.000
    H55      H        0.73870    0.27490    0.88680    1.000
    C74      C        0.81290    0.26700    0.88280    1.000
    H56      H        0.81290    0.23430    0.85590    1.000
    C75      C        0.85770    0.29100    0.89950    1.000
    H57      H        0.88650    0.27540    0.87810    1.000
    Cd7      Cd       0.43826    0.92034    0.82123    1.000
    Cd8      Cd       0.41295    0.92014    0.12559    1.000
    N7       N        0.38620    0.87480    0.71130    1.000
    N8       N        0.35990    0.86860    0.22280    1.000
    C76      C        0.31950    0.81890    0.59490    1.000
    C77      C        0.30980    0.81110    0.36690    1.000
    C78      C        0.35760    0.81830    0.21690    1.000
    H58      H        0.37280    0.80250    0.16290    1.000
    C79      C        0.33830    0.88200    0.71640    1.000
    H59      H        0.32760    0.90710    0.76030    1.000
    C80      C        0.36790    0.81180    0.58620    1.000
    H60      H        0.37970    0.78790    0.54070    1.000
    C81      C        0.33370    0.78780    0.28640    1.000
    H61      H        0.33370    0.75250    0.27960    1.000
    C82      C        0.25190    0.75560    0.60380    1.000
    H62      H        0.25410    0.75850    0.67340    1.000
    C83      C        0.28150    0.77910    0.43990    1.000
    C84      C        0.30260    0.85600    0.66280    1.000
    H63      H        0.26930    0.86260    0.67100    1.000
    C85      C        0.31350    0.86320    0.37440    1.000
    H64      H        0.29950    0.88010    0.42860    1.000
    C86      C        0.33790    0.89030    0.30210    1.000
    H65      H        0.33930    0.92560    0.30830    1.000
    C87      C        0.28280    0.78670    0.54050    1.000
    C88      C        0.40120    0.84030    0.64570    1.000
    H66      H        0.43480    0.83470    0.63860    1.000
    S7       S        0.52052    0.90776    0.74040    1.000
    C89      C        0.52480    0.84080    0.72190    1.000
    C90      C        0.53750    0.82190    0.62710    1.000
    H67      H        0.54430    0.84470    0.57560    1.000
    C91      C        0.54000    0.77040    0.60810    1.000
    H68      H        0.54820    0.75870    0.54440    1.000
    C92      C        0.53030    0.73620    0.68510    1.000
    H69      H        0.53270    0.70140    0.67320    1.000
    C93      C        0.51690    0.75370    0.78000    1.000
    H70      H        0.50950    0.73100    0.83130    1.000
    C94      C        0.51490    0.80590    0.79570    1.000
    H71      H        0.50650    0.81780    0.85920    1.000
    S8       S        0.41922    0.86502    0.97335    1.000
    C95      C        0.36050    0.83740    0.94710    1.000
    C96      C        0.31720    0.85930    0.97270    1.000
    H72      H        0.31740    0.89100    0.00400    1.000
    C97      C        0.27240    0.83510    0.95300    1.000
    H73      H        0.24360    0.85080    0.97420    1.000
    C98      C        0.26880    0.78960    0.90420    1.000
    H74      H        0.23870    0.77490    0.88680    1.000
    C99      C        0.31290    0.76700    0.88280    1.000
    H75      H        0.31290    0.73430    0.85590    1.000
    C100     C        0.35770    0.79100    0.89950    1.000
    H76      H        0.38650    0.77540    0.87810    1.000
    Cd9      Cd       0.93826    0.57966    0.82123    1.000
    Cd10     Cd       0.91295    0.57986    0.12559    1.000
    N9       N        0.88620    0.62520    0.71130    1.000
    N10      N        0.85990    0.63140    0.22280    1.000
    C101     C        0.81950    0.68110    0.59490    1.000
    C102     C        0.80980    0.68890    0.36690    1.000
    C103     C        0.85760    0.68170    0.21690    1.000
    H77      H        0.87280    0.69750    0.16290    1.000
    C104     C        0.83830    0.61800    0.71640    1.000
    H78      H        0.82760    0.59290    0.76030    1.000
    C105     C        0.86790    0.68820    0.58620    1.000
    H79      H        0.87970    0.71210    0.54070    1.000
    C106     C        0.83370    0.71220    0.28640    1.000
    H80      H        0.83370    0.74750    0.27960    1.000
    C107     C        0.75190    0.74440    0.60380    1.000
    H81      H        0.75410    0.74150    0.67340    1.000
    C108     C        0.78150    0.72090    0.43990    1.000
    C109     C        0.80260    0.64400    0.66280    1.000
    H82      H        0.76930    0.63740    0.67100    1.000
    C110     C        0.81350    0.63680    0.37440    1.000
    H83      H        0.79950    0.61990    0.42860    1.000
    C111     C        0.83790    0.60970    0.30210    1.000
    H84      H        0.83930    0.57440    0.30830    1.000
    C112     C        0.78280    0.71330    0.54050    1.000
    C113     C        0.90120    0.65970    0.64570    1.000
    H85      H        0.93480    0.66530    0.63860    1.000
    S9       S        0.02052    0.59224    0.74040    1.000
    C114     C        0.02480    0.65920    0.72190    1.000
    C115     C        0.03750    0.67810    0.62710    1.000
    H86      H        0.04430    0.65530    0.57560    1.000
    C116     C        0.04000    0.72960    0.60810    1.000
    H87      H        0.04820    0.74130    0.54440    1.000
    C117     C        0.03030    0.76380    0.68510    1.000
    H88      H        0.03270    0.79860    0.67320    1.000
    C118     C        0.01690    0.74630    0.78000    1.000
    H89      H        0.00950    0.76900    0.83130    1.000
    C119     C        0.01490    0.69410    0.79570    1.000
    H90      H        0.00650    0.68220    0.85920    1.000
    S10      S        0.91922    0.63498    0.97335    1.000
    C120     C        0.86050    0.66260    0.94710    1.000
    C121     C        0.81720    0.64070    0.97270    1.000
    H91      H        0.81740    0.60900    0.00400    1.000
    C122     C        0.77240    0.66490    0.95300    1.000
    H92      H        0.74360    0.64920    0.97420    1.000
    C123     C        0.76880    0.71040    0.90420    1.000
    H93      H        0.73870    0.72510    0.88680    1.000
    C124     C        0.81290    0.73300    0.88280    1.000
    H94      H        0.81290    0.76570    0.85590    1.000
    C125     C        0.85770    0.70900    0.89950    1.000
    H95      H        0.88650    0.72460    0.87810    1.000
    Cd11     Cd       0.43826    0.07966    0.82123    1.000
    Cd12     Cd       0.41295    0.07986    0.12559    1.000
    N11      N        0.38620    0.12520    0.71130    1.000
    N12      N        0.35990    0.13140    0.22280    1.000
    C126     C        0.31950    0.18110    0.59490    1.000
    C127     C        0.30980    0.18890    0.36690    1.000
    C128     C        0.35760    0.18170    0.21690    1.000
    H96      H        0.37280    0.19750    0.16290    1.000
    C129     C        0.33830    0.11800    0.71640    1.000
    H97      H        0.32760    0.09290    0.76030    1.000
    C130     C        0.36790    0.18820    0.58620    1.000
    H98      H        0.37970    0.21210    0.54070    1.000
    C131     C        0.33370    0.21220    0.28640    1.000
    H99      H        0.33370    0.24750    0.27960    1.000
    C132     C        0.25190    0.24440    0.60380    1.000
    H100     H        0.25410    0.24150    0.67340    1.000
    C133     C        0.28150    0.22090    0.43990    1.000
    C134     C        0.30260    0.14400    0.66280    1.000
    H101     H        0.26930    0.13740    0.67100    1.000
    C135     C        0.31350    0.13680    0.37440    1.000
    H102     H        0.29950    0.11990    0.42860    1.000
    C136     C        0.33790    0.10970    0.30210    1.000
    H103     H        0.33930    0.07440    0.30830    1.000
    C137     C        0.28280    0.21330    0.54050    1.000
    C138     C        0.40120    0.15970    0.64570    1.000
    H104     H        0.43480    0.16530    0.63860    1.000
    S11      S        0.52052    0.09224    0.74040    1.000
    C139     C        0.52480    0.15920    0.72190    1.000
    C140     C        0.53750    0.17810    0.62710    1.000
    H105     H        0.54430    0.15530    0.57560    1.000
    C141     C        0.54000    0.22960    0.60810    1.000
    H106     H        0.54820    0.24130    0.54440    1.000
    C142     C        0.53030    0.26380    0.68510    1.000
    H107     H        0.53270    0.29860    0.67320    1.000
    C143     C        0.51690    0.24630    0.78000    1.000
    H108     H        0.50950    0.26900    0.83130    1.000
    C144     C        0.51490    0.19410    0.79570    1.000
    H109     H        0.50650    0.18220    0.85920    1.000
    S12      S        0.41922    0.13498    0.97335    1.000
    C145     C        0.36050    0.16260    0.94710    1.000
    C146     C        0.31720    0.14070    0.97270    1.000
    H110     H        0.31740    0.10900    0.00400    1.000
    C147     C        0.27240    0.16490    0.95300    1.000
    H111     H        0.24360    0.14920    0.97420    1.000
    C148     C        0.26880    0.21040    0.90420    1.000
    H112     H        0.23870    0.22510    0.88680    1.000
    C149     C        0.31290    0.23300    0.88280    1.000
    H113     H        0.31290    0.26570    0.85590    1.000
    C150     C        0.35770    0.20900    0.89950    1.000
    H114     H        0.38650    0.22460    0.87810    1.000
    Cd13     Cd       0.06174    0.57966    0.17877    1.000
    Cd14     Cd       0.08705    0.57986    0.87441    1.000
    N13      N        0.11380    0.62520    0.28870    1.000
    N14      N        0.14010    0.63140    0.77720    1.000
    C151     C        0.18050    0.68110    0.40510    1.000
    C152     C        0.19020    0.68890    0.63310    1.000
    C153     C        0.14240    0.68170    0.78310    1.000
    H115     H        0.12720    0.69750    0.83710    1.000
    C154     C        0.16170    0.61800    0.28360    1.000
    H116     H        0.17240    0.59290    0.23970    1.000
    C155     C        0.13210    0.68820    0.41380    1.000
    H117     H        0.12030    0.71210    0.45930    1.000
    C156     C        0.16630    0.71220    0.71360    1.000
    H118     H        0.16630    0.74750    0.72040    1.000
    C157     C        0.24810    0.74440    0.39620    1.000
    H119     H        0.24590    0.74150    0.32660    1.000
    C158     C        0.21850    0.72090    0.56010    1.000
    C159     C        0.19740    0.64400    0.33720    1.000
    H120     H        0.23070    0.63740    0.32900    1.000
    C160     C        0.18650    0.63680    0.62560    1.000
    H121     H        0.20050    0.61990    0.57140    1.000
    C161     C        0.16210    0.60970    0.69790    1.000
    H122     H        0.16070    0.57440    0.69170    1.000
    C162     C        0.21720    0.71330    0.45950    1.000
    C163     C        0.09880    0.65970    0.35430    1.000
    H123     H        0.06520    0.66530    0.36140    1.000
    S13      S        0.97948    0.59224    0.25960    1.000
    C164     C        0.97520    0.65920    0.27810    1.000
    C165     C        0.96250    0.67810    0.37290    1.000
    H124     H        0.95570    0.65530    0.42440    1.000
    C166     C        0.96000    0.72960    0.39190    1.000
    H125     H        0.95180    0.74130    0.45560    1.000
    C167     C        0.96970    0.76380    0.31490    1.000
    H126     H        0.96730    0.79860    0.32680    1.000
    C168     C        0.98310    0.74630    0.22000    1.000
    H127     H        0.99050    0.76900    0.16870    1.000
    C169     C        0.98510    0.69410    0.20430    1.000
    H128     H        0.99350    0.68220    0.14080    1.000
    S14      S        0.08078    0.63498    0.02665    1.000
    C170     C        0.13950    0.66260    0.05290    1.000
    C171     C        0.18280    0.64070    0.02730    1.000
    H129     H        0.18260    0.60900    0.99600    1.000
    C172     C        0.22760    0.66490    0.04700    1.000
    H130     H        0.25640    0.64920    0.02580    1.000
    C173     C        0.23120    0.71040    0.09580    1.000
    H131     H        0.26130    0.72510    0.11320    1.000
    C174     C        0.18710    0.73300    0.11720    1.000
    H132     H        0.18710    0.76570    0.14410    1.000
    C175     C        0.14230    0.70900    0.10050    1.000
    H133     H        0.11350    0.72460    0.12190    1.000
    Cd15     Cd       0.56174    0.07966    0.17877    1.000
    Cd16     Cd       0.58705    0.07986    0.87441    1.000
    N15      N        0.61380    0.12520    0.28870    1.000
    N16      N        0.64010    0.13140    0.77720    1.000
    C176     C        0.68050    0.18110    0.40510    1.000
    C177     C        0.69020    0.18890    0.63310    1.000
    C178     C        0.64240    0.18170    0.78310    1.000
    H134     H        0.62720    0.19750    0.83710    1.000
    C179     C        0.66170    0.11800    0.28360    1.000
    H135     H        0.67240    0.09290    0.23970    1.000
    C180     C        0.63210    0.18820    0.41380    1.000
    H136     H        0.62030    0.21210    0.45930    1.000
    C181     C        0.66630    0.21220    0.71360    1.000
    H137     H        0.66630    0.24750    0.72040    1.000
    C182     C        0.74810    0.24440    0.39620    1.000
    H138     H        0.74590    0.24150    0.32660    1.000
    C183     C        0.71850    0.22090    0.56010    1.000
    C184     C        0.69740    0.14400    0.33720    1.000
    H139     H        0.73070    0.13740    0.32900    1.000
    C185     C        0.68650    0.13680    0.62560    1.000
    H140     H        0.70050    0.11990    0.57140    1.000
    C186     C        0.66210    0.10970    0.69790    1.000
    H141     H        0.66070    0.07440    0.69170    1.000
    C187     C        0.71720    0.21330    0.45950    1.000
    C188     C        0.59880    0.15970    0.35430    1.000
    H142     H        0.56520    0.16530    0.36140    1.000
    S15      S        0.47948    0.09224    0.25960    1.000
    C189     C        0.47520    0.15920    0.27810    1.000
    C190     C        0.46250    0.17810    0.37290    1.000
    H143     H        0.45570    0.15530    0.42440    1.000
    C191     C        0.46000    0.22960    0.39190    1.000
    H144     H        0.45180    0.24130    0.45560    1.000
    C192     C        0.46970    0.26380    0.31490    1.000
    H145     H        0.46730    0.29860    0.32680    1.000
    C193     C        0.48310    0.24630    0.22000    1.000
    H146     H        0.49050    0.26900    0.16870    1.000
    C194     C        0.48510    0.19410    0.20430    1.000
    H147     H        0.49350    0.18220    0.14080    1.000
    S16      S        0.58078    0.13498    0.02665    1.000
    C195     C        0.63950    0.16260    0.05290    1.000
    C196     C        0.68280    0.14070    0.02730    1.000
    H148     H        0.68260    0.10900    0.99600    1.000
    C197     C        0.72760    0.16490    0.04700    1.000
    H149     H        0.75640    0.14920    0.02580    1.000
    C198     C        0.73120    0.21040    0.09580    1.000
    H150     H        0.76130    0.22510    0.11320    1.000
    C199     C        0.68710    0.23300    0.11720    1.000
    H151     H        0.68710    0.26570    0.14410    1.000
    C200     C        0.64230    0.20900    0.10050    1.000
    H152     H        0.61350    0.22460    0.12190    1.000
    S17      S        0.13490    0.50000    0.83670    1.000
    C201     C        0.18910    0.50000    0.90600    1.000
    C202     C        0.19130    0.50000    0.01050    1.000
    H153     H        0.16220    0.50000    0.04700    1.000
    C203     C        0.23640    0.50000    0.06100    1.000
    H154     H        0.23920    0.50000    0.13100    1.000
    C204     C        0.23120    0.50000    0.84800    1.000
    H155     H        0.22840    0.50000    0.77840    1.000
    C205     C        0.27750    0.50000    0.89300    1.000
    H156     H        0.30650    0.50000    0.85680    1.000
    C206     C        0.27700    0.50000    0.99800    1.000
    H157     H        0.30770    0.50000    0.02960    1.000
    S18      S        0.11032    0.50000    0.21520    1.000
    C207     C        0.10960    0.50000    0.35060    1.000
    C208     C        0.06830    0.50000    0.40490    1.000
    H158     H        0.03850    0.50000    0.36980    1.000
    C209     C        0.06620    0.50000    0.50650    1.000
    H159     H        0.03660    0.50000    0.54110    1.000
    C210     C        0.11070    0.50000    0.55400    1.000
    H160     H        0.11070    0.50000    0.62390    1.000
    C211     C        0.15450    0.50000    0.50850    1.000
    H161     H        0.18430    0.50000    0.54350    1.000
    C212     C        0.15130    0.50000    0.40530    1.000
    H162     H        0.18070    0.50000    0.37030    1.000
    S19      S        0.63490    0.00000    0.83670    1.000
    C213     C        0.68910    0.00000    0.90600    1.000
    C214     C        0.69130    0.00000    0.01050    1.000
    H163     H        0.66220    0.00000    0.04700    1.000
    C215     C        0.73640    0.00000    0.06100    1.000
    H164     H        0.73920    0.00000    0.13100    1.000
    C216     C        0.73120    0.00000    0.84800    1.000
    H165     H        0.72840    0.00000    0.77840    1.000
    C217     C        0.77750    0.00000    0.89300    1.000
    H166     H        0.80650    0.00000    0.85680    1.000
    C218     C        0.77700    0.00000    0.99800    1.000
    H167     H        0.80770    0.00000    0.02960    1.000
    S20      S        0.61032    0.00000    0.21520    1.000
    C219     C        0.60960    0.00000    0.35060    1.000
    C220     C        0.56830    0.00000    0.40490    1.000
    H168     H        0.53850    0.00000    0.36980    1.000
    C221     C        0.56620    0.00000    0.50650    1.000
    H169     H        0.53660    0.00000    0.54110    1.000
    C222     C        0.61070    0.00000    0.55400    1.000
    H170     H        0.61070    0.00000    0.62390    1.000
    C223     C        0.65450    0.00000    0.50850    1.000
    H171     H        0.68430    0.00000    0.54350    1.000
    C224     C        0.65130    0.00000    0.40530    1.000
    H172     H        0.68070    0.00000    0.37030    1.000
    S21      S        0.86510    0.50000    0.16330    1.000
    C225     C        0.81090    0.50000    0.09400    1.000
    C226     C        0.80870    0.50000    0.98950    1.000
    H173     H        0.83780    0.50000    0.95300    1.000
    C227     C        0.76360    0.50000    0.93900    1.000
    H174     H        0.76080    0.50000    0.86900    1.000
    C228     C        0.76880    0.50000    0.15200    1.000
    H175     H        0.77160    0.50000    0.22160    1.000
    C229     C        0.72250    0.50000    0.10700    1.000
    H176     H        0.69350    0.50000    0.14320    1.000
    C230     C        0.72300    0.50000    0.00200    1.000
    H177     H        0.69230    0.50000    0.97040    1.000
    S22      S        0.88968    0.50000    0.78480    1.000
    C231     C        0.89040    0.50000    0.64940    1.000
    C232     C        0.93170    0.50000    0.59510    1.000
    H178     H        0.96150    0.50000    0.63020    1.000
    C233     C        0.93380    0.50000    0.49350    1.000
    H179     H        0.96340    0.50000    0.45890    1.000
    C234     C        0.88930    0.50000    0.44600    1.000
    H180     H        0.88930    0.50000    0.37610    1.000
    C235     C        0.84550    0.50000    0.49150    1.000
    H181     H        0.81570    0.50000    0.45650    1.000
    C236     C        0.84870    0.50000    0.59470    1.000
    H182     H        0.81930    0.50000    0.62970    1.000
    S23      S        0.36510    0.00000    0.16330    1.000
    C237     C        0.31090    0.00000    0.09400    1.000
    C238     C        0.30870    0.00000    0.98950    1.000
    H183     H        0.33780    0.00000    0.95300    1.000
    C239     C        0.26360    0.00000    0.93900    1.000
    H184     H        0.26080    0.00000    0.86900    1.000
    C240     C        0.26880    0.00000    0.15200    1.000
    H185     H        0.27160    0.00000    0.22160    1.000
    C241     C        0.22250    0.00000    0.10700    1.000
    H186     H        0.19350    0.00000    0.14320    1.000
    C242     C        0.22300    0.00000    0.00200    1.000
    H187     H        0.19230    0.00000    0.97040    1.000
    S24      S        0.38968    0.00000    0.78480    1.000
    C243     C        0.39040    0.00000    0.64940    1.000
    C244     C        0.43170    0.00000    0.59510    1.000
    H188     H        0.46150    0.00000    0.63020    1.000
    C245     C        0.43380    0.00000    0.49350    1.000
    H189     H        0.46340    0.00000    0.45890    1.000
    C246     C        0.38930    0.00000    0.44600    1.000
    H190     H        0.38930    0.00000    0.37610    1.000
    C247     C        0.34550    0.00000    0.49150    1.000
    H191     H        0.31570    0.00000    0.45650    1.000
    C248     C        0.34870    0.00000    0.59470    1.000
    H192     H        0.31930    0.00000    0.62970    1.000
