# CIF file generated by openbabel 3.1.0, see https://openbabel.org
data_I
_chemical_name_common 'LUFNAC05_clean'
_cell_length_a 11.8647
_cell_length_b 11.8647
_cell_length_c 16.343
_cell_angle_alpha 73.3114
_cell_angle_beta 73.3114
_cell_angle_gamma 78.7511
_space_group_name_H-M_alt 'P 1'
_space_group_name_Hall 'P 1'
loop_
    _symmetry_equiv_pos_as_xyz
    x,y,z
loop_
    _atom_site_label
    _atom_site_type_symbol
    _atom_site_fract_x
    _atom_site_fract_y
    _atom_site_fract_z
    _atom_site_occupancy
    Mn1      Mn       0.83328    0.61570    0.54688    1.000
    Mn2      Mn       0.38430    0.16672    0.95312    1.000
    Mn3      Mn       0.16672    0.38430    0.45312    1.000
    Mn4      Mn       0.61570    0.83328    0.04688    1.000
    H1       H        0.16520    0.45320    0.03660    1.000
    H2       H        0.81270    0.66350    0.27480    1.000
    H3       H        0.14130    0.48530    0.24520    1.000
    H4       H        0.32630    0.36190    0.07620    1.000
    H5       H        0.26520    0.37640    0.17170    1.000
    H6       H        0.97960    0.57680    0.04580    1.000
    H7       H        0.45730    0.42250    0.18010    1.000
    H8       H        0.29310    0.63710    0.00150    1.000
    H9       H        0.57570    0.56570    0.15260    1.000
    H10      H        0.41090    0.77550    0.98440    1.000
    H11      H        0.54680    0.83480    0.46340    1.000
    H12      H        0.33650    0.18730    0.22520    1.000
    H13      H        0.51470    0.85870    0.25480    1.000
    H14      H        0.63810    0.67370    0.42380    1.000
    H15      H        0.62360    0.73480    0.32830    1.000
    H16      H        0.42320    0.02040    0.45420    1.000
    H17      H        0.57750    0.54270    0.31990    1.000
    H18      H        0.36290    0.70690    0.49850    1.000
    H19      H        0.43430    0.42430    0.34740    1.000
    H20      H        0.22450    0.58910    0.51560    1.000
    H21      H        0.83480    0.54680    0.96340    1.000
    H22      H        0.18730    0.33650    0.72520    1.000
    H23      H        0.85870    0.51470    0.75480    1.000
    H24      H        0.67370    0.63810    0.92380    1.000
    H25      H        0.73480    0.62360    0.82830    1.000
    H26      H        0.02040    0.42320    0.95420    1.000
    H27      H        0.54270    0.57750    0.81990    1.000
    H28      H        0.70690    0.36290    0.99850    1.000
    H29      H        0.42430    0.43430    0.84740    1.000
    H30      H        0.58910    0.22450    0.01560    1.000
    H31      H        0.45320    0.16520    0.53660    1.000
    H32      H        0.66350    0.81270    0.77480    1.000
    H33      H        0.48530    0.14130    0.74520    1.000
    H34      H        0.36190    0.32630    0.57620    1.000
    H35      H        0.37640    0.26520    0.67170    1.000
    H36      H        0.57680    0.97960    0.54580    1.000
    H37      H        0.42250    0.45730    0.68010    1.000
    H38      H        0.63710    0.29310    0.50150    1.000
    H39      H        0.56570    0.57570    0.65260    1.000
    H40      H        0.77550    0.41090    0.48440    1.000
    C1       C        0.97580    0.57420    0.27420    1.000
    C2       C        0.07780    0.51780    0.13620    1.000
    C3       C        0.88060    0.62720    0.15480    1.000
    C4       C        0.87880    0.62760    0.24060    1.000
    C5       C        0.77760    0.69080    0.11660    1.000
    C6       C        0.35850    0.51270    0.09630    1.000
    C7       C        0.07580    0.52000    0.22240    1.000
    C8       C        0.97560    0.57380    0.36610    1.000
    C9       C        0.28210    0.41850    0.11000    1.000
    C10      C        0.97910    0.57450    0.10330    1.000
    C11      C        0.44530    0.49410    0.13950    1.000
    C12      C        0.34840    0.62100    0.03500    1.000
    C13      C        0.51590    0.58210    0.12310    1.000
    C14      C        0.42050    0.70310    0.02480    1.000
    C15      C        0.42580    0.02420    0.22580    1.000
    C16      C        0.48220    0.92220    0.36380    1.000
    C17      C        0.37280    0.11940    0.34520    1.000
    C18      C        0.37240    0.12120    0.25940    1.000
    C19      C        0.30920    0.22240    0.38340    1.000
    C20      C        0.48730    0.64150    0.40370    1.000
    C21      C        0.48000    0.92420    0.27760    1.000
    C22      C        0.42620    0.02440    0.13390    1.000
    C23      C        0.58150    0.71790    0.39000    1.000
    C24      C        0.42550    0.02090    0.39670    1.000
    C25      C        0.50590    0.55470    0.36050    1.000
    C26      C        0.37900    0.65160    0.46500    1.000
    C27      C        0.41790    0.48410    0.37690    1.000
    C28      C        0.29690    0.57950    0.47520    1.000
    C29      C        0.02420    0.42580    0.72580    1.000
    C30      C        0.92220    0.48220    0.86380    1.000
    C31      C        0.11940    0.37280    0.84520    1.000
    C32      C        0.12120    0.37240    0.75940    1.000
    C33      C        0.22240    0.30920    0.88340    1.000
    C34      C        0.64150    0.48730    0.90370    1.000
    C35      C        0.92420    0.48000    0.77760    1.000
    C36      C        0.02440    0.42620    0.63390    1.000
    C37      C        0.71790    0.58150    0.89000    1.000
    C38      C        0.02090    0.42550    0.89670    1.000
    C39      C        0.55470    0.50590    0.86050    1.000
    C40      C        0.65160    0.37900    0.96500    1.000
    C41      C        0.48410    0.41790    0.87690    1.000
    C42      C        0.57950    0.29690    0.97520    1.000
    C43      C        0.57420    0.97580    0.77420    1.000
    C44      C        0.51780    0.07780    0.63620    1.000
    C45      C        0.62720    0.88060    0.65480    1.000
    C46      C        0.62760    0.87880    0.74060    1.000
    C47      C        0.69080    0.77760    0.61660    1.000
    C48      C        0.51270    0.35850    0.59630    1.000
    C49      C        0.52000    0.07580    0.72240    1.000
    C50      C        0.57380    0.97560    0.86610    1.000
    C51      C        0.41850    0.28210    0.61000    1.000
    C52      C        0.57450    0.97910    0.60330    1.000
    C53      C        0.49410    0.44530    0.63950    1.000
    C54      C        0.62100    0.34840    0.53500    1.000
    C55      C        0.58210    0.51590    0.62310    1.000
    C56      C        0.70310    0.42050    0.52480    1.000
    N1       N        0.17220    0.46220    0.08530    1.000
    N2       N        0.50450    0.68730    0.06880    1.000
    N3       N        0.53780    0.82780    0.41470    1.000
    N4       N        0.31270    0.49550    0.43120    1.000
    N5       N        0.82780    0.53780    0.91470    1.000
    N6       N        0.49550    0.31270    0.93120    1.000
    N7       N        0.46220    0.17220    0.58530    1.000
    N8       N        0.68730    0.50450    0.56880    1.000
    O1       O        0.68850    0.73890    0.16380    1.000
    O2       O        0.78400    0.69780    0.03600    1.000
    O3       O        0.87950    0.61350    0.41190    1.000
    O4       O        0.06940    0.53620    0.39140    1.000
    O5       O        0.26110    0.31150    0.33620    1.000
    O6       O        0.30220    0.21600    0.46400    1.000
    O7       O        0.38650    0.12050    0.08810    1.000
    O8       O        0.46380    0.93060    0.10860    1.000
    O9       O        0.31150    0.26110    0.83620    1.000
    O10      O        0.21600    0.30220    0.96400    1.000
    O11      O        0.12050    0.38650    0.58810    1.000
    O12      O        0.93060    0.46380    0.60860    1.000
    O13      O        0.73890    0.68850    0.66380    1.000
    O14      O        0.69780    0.78400    0.53600    1.000
    O15      O        0.61350    0.87950    0.91190    1.000
    O16      O        0.53620    0.06940    0.89140    1.000
