# CIF file generated by openbabel 3.1.0, see https://openbabel.org
data_I
_chemical_name_common 'NEJSAY_clean'
_cell_length_a 10.8195
_cell_length_b 14.004
_cell_length_c 21.682
_cell_angle_alpha 87.57
_cell_angle_beta 86.557
_cell_angle_gamma 88.083
_space_group_name_H-M_alt 'P 1'
_space_group_name_Hall 'P 1'
loop_
    _symmetry_equiv_pos_as_xyz
    x,y,z
loop_
    _atom_site_label
    _atom_site_type_symbol
    _atom_site_fract_x
    _atom_site_fract_y
    _atom_site_fract_z
    _atom_site_occupancy
    Cu1      Cu       0.22874    0.30490    0.66777    1.000
    Cu2      Cu       0.23700    0.11567    0.67291    1.000
    Cu3      Cu       0.19832    0.30278    0.16879    1.000
    Cu4      Cu       0.20715    0.11335    0.17392    1.000
    H1       H        0.20560    0.35380    0.86360    1.000
    H2       H        0.19310    0.35410    0.97010    1.000
    H3       H        0.24600    0.06810    0.97760    1.000
    H4       H        0.25560    0.06950    0.87090    1.000
    H5       H        0.84590    0.06740    0.68120    1.000
    H6       H        0.63240    0.06540    0.67710    1.000
    H7       H        0.61860    0.35210    0.65960    1.000
    H8       H        0.83220    0.35560    0.66560    1.000
    H9       H        0.25920    0.06990    0.47520    1.000
    H10      H        0.24430    0.06940    0.37080    1.000
    H11      H        0.16880    0.35340    0.36570    1.000
    H12      H        0.17890    0.35350    0.47220    1.000
    H13      H        0.81640    0.06330    0.18200    1.000
    H14      H        0.60150    0.06190    0.18320    1.000
    H15      H        0.58870    0.35070    0.15960    1.000
    H16      H        0.80360    0.35140    0.16190    1.000
    H17      H        0.38290    0.47200    0.61680    1.000
    H18      H        0.39030    0.63470    0.61340    1.000
    H19      H        0.07270    0.63950    0.71710    1.000
    H20      H        0.07380    0.47660    0.71510    1.000
    H21      H        0.41870    0.94010    0.66440    1.000
    H22      H        0.42010    0.77690    0.66170    1.000
    H23      H        0.04900    0.79000    0.67160    1.000
    H24      H        0.05700    0.95200    0.67520    1.000
    H25      H        0.38740    0.93820    0.16720    1.000
    H26      H        0.39010    0.77480    0.16190    1.000
    H27      H        0.02020    0.78840    0.16740    1.000
    H28      H        0.02900    0.95020    0.16940    1.000
    H29      H        0.35730    0.47000    0.11500    1.000
    H30      H        0.36830    0.63260    0.11640    1.000
    H31      H        0.03400    0.63970    0.20720    1.000
    H32      H        0.03820    0.47550    0.20830    1.000
    C1       C        0.23360    0.21080    0.78683    1.000
    C2       C        0.99840    0.21130    0.67424    1.000
    C3       C        0.22960    0.21260    0.55375    1.000
    C4       C        0.46630    0.20880    0.66700    1.000
    C5       C        0.20080    0.21050    0.28817    1.000
    C6       C        0.96870    0.20880    0.17293    1.000
    C7       C        0.21270    0.20990    0.05386    1.000
    C8       C        0.43610    0.20440    0.16906    1.000
    C9       C        0.23200    0.21160    0.85651    1.000
    C10      C        0.21360    0.29580    0.88660    1.000
    C11      C        0.20690    0.29600    0.95020    1.000
    C12      C        0.22040    0.21150    0.98538    1.000
    C13      C        0.23800    0.12640    0.95480    1.000
    C14      C        0.24360    0.12750    0.89110    1.000
    C15      C        0.86120    0.21110    0.67293    1.000
    C16      C        0.80010    0.12530    0.67690    1.000
    C17      C        0.67290    0.12390    0.67460    1.000
    C18      C        0.60550    0.20850    0.66867    1.000
    C19      C        0.66500    0.29460    0.66450    1.000
    C20      C        0.79240    0.29680    0.66740    1.000
    C21      C        0.22050    0.21300    0.48470    1.000
    C22      C        0.24030    0.12720    0.45310    1.000
    C23      C        0.23230    0.12720    0.39120    1.000
    C24      C        0.20650    0.21070    0.35686    1.000
    C25      C        0.18660    0.29610    0.38800    1.000
    C26      C        0.19320    0.29620    0.45150    1.000
    C27      C        0.83070    0.20790    0.17162    1.000
    C28      C        0.77020    0.12110    0.17780    1.000
    C29      C        0.64240    0.12010    0.17780    1.000
    C30      C        0.57440    0.20570    0.16977    1.000
    C31      C        0.63460    0.29290    0.16410    1.000
    C32      C        0.76270    0.29310    0.16530    1.000
    C33      C        0.31800    0.50670    0.63720    1.000
    C34      C        0.32380    0.60430    0.63520    1.000
    C35      C        0.23260    0.65700    0.66500    1.000
    C36      C        0.13790    0.60670    0.69550    1.000
    C37      C        0.13940    0.50940    0.69430    1.000
    C38      C        0.34270    0.90920    0.66620    1.000
    C39      C        0.34410    0.81140    0.66440    1.000
    C40      C        0.23460    0.76350    0.66650    1.000
    C41      C        0.12620    0.81910    0.67040    1.000
    C42      C        0.13170    0.91580    0.67240    1.000
    C43      C        0.31170    0.90700    0.16750    1.000
    C44      C        0.31380    0.80900    0.16420    1.000
    C45      C        0.20540    0.76070    0.16422    1.000
    C46      C        0.09760    0.81700    0.16700    1.000
    C47      C        0.10350    0.91370    0.16910    1.000
    C48      C        0.29280    0.50480    0.13560    1.000
    C49      C        0.29900    0.60200    0.13540    1.000
    C50      C        0.20280    0.65550    0.16330    1.000
    C51      C        0.10320    0.60640    0.18940    1.000
    C52      C        0.10610    0.50770    0.18920    1.000
    N1       N        0.22910    0.45890    0.66527    1.000
    N2       N        0.23860    0.96210    0.67054    1.000
    N3       N        0.20800    0.95880    0.17089    1.000
    N4       N        0.19740    0.45620    0.16424    1.000
    O1       O        0.23140    0.29010    0.75828    1.000
    O2       O        0.23410    0.13100    0.76269    1.000
    O3       O        0.04820    0.29250    0.67427    1.000
    O4       O        0.05660    0.13230    0.67606    1.000
    O5       O        0.22590    0.29280    0.57820    1.000
    O6       O        0.24030    0.13350    0.58211    1.000
    O7       O        0.40990    0.28720    0.66262    1.000
    O8       O        0.41610    0.12830    0.66919    1.000
    O9       O        0.19680    0.29050    0.25941    1.000
    O10      O        0.20020    0.13120    0.26422    1.000
    O11      O        0.01770    0.28830    0.17253    1.000
    O12      O        0.02660    0.12950    0.17470    1.000
    O13      O        0.20320    0.29020    0.07892    1.000
    O14      O        0.21710    0.13170    0.08300    1.000
    O15      O        0.37890    0.28450    0.16591    1.000
    O16      O        0.38580    0.12530    0.17309    1.000
    Cu5      Cu       0.77126    0.69510    0.33223    1.000
    Cu6      Cu       0.76300    0.88433    0.32709    1.000
    Cu7      Cu       0.80168    0.69722    0.83121    1.000
    Cu8      Cu       0.79285    0.88665    0.82608    1.000
    H33      H        0.79440    0.64620    0.13640    1.000
    H34      H        0.80690    0.64590    0.02990    1.000
    H35      H        0.75400    0.93190    0.02240    1.000
    H36      H        0.74440    0.93050    0.12910    1.000
    H37      H        0.15410    0.93260    0.31880    1.000
    H38      H        0.36760    0.93460    0.32290    1.000
    H39      H        0.38140    0.64790    0.34040    1.000
    H40      H        0.16780    0.64440    0.33440    1.000
    H41      H        0.74080    0.93010    0.52480    1.000
    H42      H        0.75570    0.93060    0.62920    1.000
    H43      H        0.83120    0.64660    0.63430    1.000
    H44      H        0.82110    0.64650    0.52780    1.000
    H45      H        0.18360    0.93670    0.81800    1.000
    H46      H        0.39850    0.93810    0.81680    1.000
    H47      H        0.41130    0.64930    0.84040    1.000
    H48      H        0.19640    0.64860    0.83810    1.000
    H49      H        0.61710    0.52800    0.38320    1.000
    H50      H        0.60970    0.36530    0.38660    1.000
    H51      H        0.92730    0.36050    0.28290    1.000
    H52      H        0.92620    0.52340    0.28490    1.000
    H53      H        0.58130    0.05990    0.33560    1.000
    H54      H        0.57990    0.22310    0.33830    1.000
    H55      H        0.95100    0.21000    0.32840    1.000
    H56      H        0.94300    0.04800    0.32480    1.000
    H57      H        0.61260    0.06180    0.83280    1.000
    H58      H        0.60990    0.22520    0.83810    1.000
    H59      H        0.97980    0.21160    0.83260    1.000
    H60      H        0.97100    0.04980    0.83060    1.000
    H61      H        0.64270    0.53000    0.88500    1.000
    H62      H        0.63170    0.36740    0.88360    1.000
    H63      H        0.96600    0.36030    0.79280    1.000
    H64      H        0.96180    0.52450    0.79170    1.000
    C53      C        0.76640    0.78920    0.21317    1.000
    C54      C        0.00160    0.78870    0.32576    1.000
    C55      C        0.77040    0.78740    0.44625    1.000
    C56      C        0.53370    0.79120    0.33300    1.000
    C57      C        0.79920    0.78950    0.71183    1.000
    C58      C        0.03130    0.79120    0.82707    1.000
    C59      C        0.78730    0.79010    0.94614    1.000
    C60      C        0.56390    0.79560    0.83094    1.000
    C61      C        0.76800    0.78840    0.14349    1.000
    C62      C        0.78640    0.70420    0.11340    1.000
    C63      C        0.79310    0.70400    0.04980    1.000
    C64      C        0.77960    0.78850    0.01462    1.000
    C65      C        0.76200    0.87360    0.04520    1.000
    C66      C        0.75640    0.87250    0.10890    1.000
    C67      C        0.13880    0.78890    0.32707    1.000
    C68      C        0.19990    0.87470    0.32310    1.000
    C69      C        0.32710    0.87610    0.32540    1.000
    C70      C        0.39450    0.79150    0.33133    1.000
    C71      C        0.33500    0.70540    0.33550    1.000
    C72      C        0.20760    0.70320    0.33260    1.000
    C73      C        0.77950    0.78700    0.51530    1.000
    C74      C        0.75970    0.87280    0.54690    1.000
    C75      C        0.76770    0.87280    0.60880    1.000
    C76      C        0.79350    0.78930    0.64314    1.000
    C77      C        0.81340    0.70390    0.61200    1.000
    C78      C        0.80680    0.70380    0.54850    1.000
    C79      C        0.16930    0.79210    0.82838    1.000
    C80      C        0.22980    0.87890    0.82220    1.000
    C81      C        0.35760    0.87990    0.82220    1.000
    C82      C        0.42560    0.79430    0.83023    1.000
    C83      C        0.36540    0.70710    0.83590    1.000
    C84      C        0.23730    0.70690    0.83470    1.000
    C85      C        0.68200    0.49330    0.36280    1.000
    C86      C        0.67620    0.39570    0.36480    1.000
    C87      C        0.76740    0.34300    0.33500    1.000
    C88      C        0.86210    0.39330    0.30450    1.000
    C89      C        0.86060    0.49060    0.30570    1.000
    C90      C        0.65730    0.09080    0.33380    1.000
    C91      C        0.65590    0.18860    0.33560    1.000
    C92      C        0.76540    0.23650    0.33350    1.000
    C93      C        0.87380    0.18090    0.32960    1.000
    C94      C        0.86830    0.08420    0.32760    1.000
    C95      C        0.68830    0.09300    0.83250    1.000
    C96      C        0.68620    0.19100    0.83580    1.000
    C97      C        0.79460    0.23930    0.83578    1.000
    C98      C        0.90240    0.18300    0.83300    1.000
    C99      C        0.89650    0.08630    0.83090    1.000
    C100     C        0.70720    0.49520    0.86440    1.000
    C101     C        0.70100    0.39800    0.86460    1.000
    C102     C        0.79720    0.34450    0.83670    1.000
    C103     C        0.89680    0.39360    0.81060    1.000
    C104     C        0.89390    0.49230    0.81080    1.000
    N5       N        0.77090    0.54110    0.33473    1.000
    N6       N        0.76140    0.03790    0.32946    1.000
    N7       N        0.79200    0.04120    0.82911    1.000
    N8       N        0.80260    0.54380    0.83576    1.000
    O17      O        0.76860    0.70990    0.24172    1.000
    O18      O        0.76590    0.86900    0.23731    1.000
    O19      O        0.95180    0.70750    0.32573    1.000
    O20      O        0.94340    0.86770    0.32394    1.000
    O21      O        0.77410    0.70720    0.42180    1.000
    O22      O        0.75970    0.86650    0.41789    1.000
    O23      O        0.59010    0.71280    0.33738    1.000
    O24      O        0.58390    0.87170    0.33081    1.000
    O25      O        0.80320    0.70950    0.74059    1.000
    O26      O        0.79980    0.86880    0.73578    1.000
    O27      O        0.98230    0.71170    0.82747    1.000
    O28      O        0.97340    0.87050    0.82530    1.000
    O29      O        0.79680    0.70980    0.92108    1.000
    O30      O        0.78290    0.86830    0.91700    1.000
    O31      O        0.62110    0.71550    0.83409    1.000
    O32      O        0.61420    0.87470    0.82691    1.000
