# CIF file generated by openbabel 3.1.0, see https://openbabel.org
data_I
_chemical_name_common 'image0'
_cell_length_a 21.863
_cell_length_b 10.035
_cell_length_c 13.854
_cell_angle_alpha 90
_cell_angle_beta 91.53
_cell_angle_gamma 90
_space_group_name_H-M_alt 'P 1'
_space_group_name_Hall 'P 1'
loop_
    _symmetry_equiv_pos_as_xyz
    x,y,z
loop_
    _atom_site_label
    _atom_site_type_symbol
    _atom_site_fract_x
    _atom_site_fract_y
    _atom_site_fract_z
    _atom_site_occupancy
    Gd1      Gd       0.25952    0.56098    0.26962    1.000
    O1       O        0.36389    0.49610    0.21557    1.000
    O2       O        0.32390    0.66590    0.13739    1.000
    O3       O        0.21451    0.76380    0.20536    1.000
    O4       O        0.21829    0.52560    0.10940    1.000
    C1       C        0.36713    0.58110    0.14980    1.000
    Gd2      Gd       0.24855    0.74949    0.02903    1.000
    C2       C        0.18268    0.86770    0.18580    1.000
    C3       C        0.16531    0.53620    0.06860    1.000
    C4       C        0.41892    0.58440    0.08050    1.000
    O5       O        0.18790    0.92270    0.10572    1.000
    O6       O        0.31454    0.92800    0.03714    1.000
    O7       O        0.15263    0.63610    0.01746    1.000
    O8       O        0.30934    0.76200    0.86111    1.000
    O9       O        0.28024    0.57230    0.92266    1.000
    O10      O        0.19643    0.86390    0.90427    1.000
    C5       C        0.13907    0.92410    0.25760    1.000
    C6       C        0.11916    0.42630    0.08100    1.000
    H1       H        0.42130    0.67360    0.05380    1.000
    H2       H        0.40910    0.52430    0.02750    1.000
    C7       C        0.48124    0.54760    0.12180    1.000
    C8       C        0.32928    0.02530    0.98580    1.000
    C9       C        0.30655    0.63590    0.85670    1.000
    C10      C        0.14709    0.92170    0.87300    1.000
    H3       H        0.15810    0.99950    0.29020    1.000
    H4       H        0.13060    0.85690    0.30580    1.000
    C11      C        0.07930    0.96860    0.20950    1.000
    H5       H        0.11570    0.40690    0.14920    1.000
    H6       H        0.13360    0.34640    0.04950    1.000
    C12      C        0.05685    0.46240    0.03950    1.000
    C13      C        0.52591    0.64340    0.13490    1.000
    C14      C        0.49581    0.41580    0.14450    1.000
    C15      C        0.37850    0.11590    0.02720    1.000
    O11      O        0.30644    0.05080    0.90384    1.000
    O12      O        0.14938    0.98290    0.79620    1.000
    C16      C        0.33658    0.56040    0.77720    1.000
    C17      C        0.09019    0.91010    0.93180    1.000
    C18      C        0.06776    0.10070    0.18930    1.000
    C19      C        0.03589    0.87450    0.18000    1.000
    C20      C        0.04313    0.44130    0.94220    1.000
    C21      C        0.01341    0.52120    0.09680    1.000
    H7       H        0.51680    0.73200    0.12110    1.000
    C22      C        0.58453    0.60910    0.16850    1.000
    C23      C        0.55403    0.38260    0.17840    1.000
    H8       H        0.46630    0.34970    0.13680    1.000
    H9       H        0.37220    0.12920    0.09550    1.000
    H10      H        0.37610    0.20200    0.99550    1.000
    C24      C        0.44152    0.05500    0.01280    1.000
    C25      C        0.40096    0.52180    0.80970    1.000
    H11      H        0.31310    0.48100    0.76150    1.000
    H12      H        0.33800    0.61550    0.71970    1.000
    C26      C        0.03141    0.95320    0.88130    1.000
    H13      H        0.09590    0.96320    0.98990    1.000
    H14      H        0.08580    0.81800    0.95170    1.000
    H15      H        0.09700    0.16450    0.20580    1.000
    C27      C        0.01310    0.14000    0.14450    1.000
    C28      C        0.98116    0.91420    0.13580    1.000
    H16      H        0.04360    0.78430    0.19000    1.000
    H17      H        0.07190    0.40200    0.90300    1.000
    H18      H        0.02220    0.53560    0.16200    1.000
    H19      H        0.61420    0.67500    0.17630    1.000
    H20      H        0.56300    0.29430    0.19340    1.000
    C29      C        0.48451    0.04750    0.08880    1.000
    C30      C        0.45815    0.00540    0.92390    1.000
    H21      H        0.00620    0.22980    0.13170    1.000
    H22      H        0.95240    0.85010    0.11740    1.000
    H23      H        0.47420    0.07900    0.14940    1.000
    H24      H        0.43020    0.00800    0.87210    1.000
    Gd3      Gd       0.74048    0.06098    0.23038    1.000
    O13      O        0.63611    0.99610    0.28443    1.000
    O14      O        0.67610    0.16590    0.36261    1.000
    O15      O        0.78549    0.26380    0.29464    1.000
    O16      O        0.78171    0.02560    0.39060    1.000
    C31      C        0.63287    0.08110    0.35020    1.000
    Gd4      Gd       0.75145    0.24949    0.47097    1.000
    C32      C        0.81732    0.36770    0.31420    1.000
    C33      C        0.83469    0.03620    0.43140    1.000
    C34      C        0.58108    0.08440    0.41950    1.000
    O17      O        0.81210    0.42270    0.39428    1.000
    O18      O        0.68546    0.42800    0.46286    1.000
    O19      O        0.84737    0.13610    0.48254    1.000
    O20      O        0.69066    0.26200    0.63889    1.000
    O21      O        0.71976    0.07230    0.57734    1.000
    O22      O        0.80357    0.36390    0.59573    1.000
    C35      C        0.86093    0.42410    0.24240    1.000
    C36      C        0.88084    0.92630    0.41900    1.000
    H25      H        0.57870    0.17360    0.44620    1.000
    H26      H        0.59090    0.02430    0.47250    1.000
    C37      C        0.51876    0.04760    0.37820    1.000
    C38      C        0.67072    0.52530    0.51420    1.000
    C39      C        0.69345    0.13590    0.64330    1.000
    C40      C        0.85291    0.42170    0.62700    1.000
    H27      H        0.84190    0.49950    0.20980    1.000
    H28      H        0.86940    0.35690    0.19420    1.000
    C41      C        0.92070    0.46860    0.29050    1.000
    H29      H        0.88430    0.90690    0.35080    1.000
    H30      H        0.86640    0.84640    0.45050    1.000
    C42      C        0.94315    0.96240    0.46050    1.000
    C43      C        0.47409    0.14340    0.36510    1.000
    C44      C        0.50419    0.91580    0.35550    1.000
    C45      C        0.62150    0.61590    0.47280    1.000
    O23      O        0.69356    0.55080    0.59616    1.000
    O24      O        0.85062    0.48290    0.70380    1.000
    C46      C        0.66342    0.06040    0.72280    1.000
    C47      C        0.90981    0.41010    0.56820    1.000
    C48      C        0.93224    0.60070    0.31070    1.000
    C49      C        0.96411    0.37450    0.32000    1.000
    C50      C        0.95687    0.94130    0.55780    1.000
    C51      C        0.98659    0.02120    0.40320    1.000
    H31      H        0.48320    0.23200    0.37890    1.000
    C52      C        0.41547    0.10910    0.33150    1.000
    C53      C        0.44597    0.88260    0.32160    1.000
    H32      H        0.53370    0.84970    0.36320    1.000
    H33      H        0.62780    0.62920    0.40450    1.000
    H34      H        0.62390    0.70200    0.50450    1.000
    C54      C        0.55848    0.55500    0.48720    1.000
    C55      C        0.59904    0.02180    0.69030    1.000
    H35      H        0.68690    0.98100    0.73850    1.000
    H36      H        0.66200    0.11550    0.78030    1.000
    C56      C        0.96859    0.45320    0.61870    1.000
    H37      H        0.90410    0.46320    0.51010    1.000
    H38      H        0.91420    0.31800    0.54830    1.000
    H39      H        0.90300    0.66450    0.29420    1.000
    C57      C        0.98690    0.64000    0.35550    1.000
    C58      C        0.01884    0.41420    0.36420    1.000
    H40      H        0.95640    0.28430    0.31000    1.000
    H41      H        0.92810    0.90200    0.59700    1.000
    H42      H        0.97780    0.03560    0.33800    1.000
    H43      H        0.38580    0.17500    0.32370    1.000
    H44      H        0.43700    0.79430    0.30660    1.000
    C59      C        0.51549    0.54750    0.41120    1.000
    C60      C        0.54185    0.50540    0.57610    1.000
    H45      H        0.99380    0.72980    0.36830    1.000
    H46      H        0.04760    0.35010    0.38260    1.000
    H47      H        0.52580    0.57900    0.35060    1.000
    H48      H        0.56980    0.50800    0.62790    1.000
    Gd5      Gd       0.74048    0.43902    0.73038    1.000
    O25      O        0.63611    0.50390    0.78443    1.000
    O26      O        0.67610    0.33410    0.86261    1.000
    O27      O        0.78549    0.23620    0.79464    1.000
    O28      O        0.78171    0.47440    0.89060    1.000
    C61      C        0.63287    0.41890    0.85020    1.000
    Gd6      Gd       0.75145    0.25051    0.97097    1.000
    C62      C        0.81732    0.13230    0.81420    1.000
    C63      C        0.83469    0.46380    0.93140    1.000
    C64      C        0.58108    0.41560    0.91950    1.000
    O29      O        0.81210    0.07730    0.89428    1.000
    O30      O        0.68546    0.07200    0.96286    1.000
    O31      O        0.84737    0.36390    0.98254    1.000
    O32      O        0.69066    0.23800    0.13889    1.000
    O33      O        0.71976    0.42770    0.07734    1.000
    O34      O        0.80357    0.13610    0.09573    1.000
    C65      C        0.86093    0.07590    0.74240    1.000
    C66      C        0.88084    0.57370    0.91900    1.000
    H49      H        0.57870    0.32640    0.94620    1.000
    H50      H        0.59090    0.47570    0.97250    1.000
    C67      C        0.51876    0.45240    0.87820    1.000
    C68      C        0.67072    0.97470    0.01420    1.000
    C69      C        0.69345    0.36410    0.14330    1.000
    C70      C        0.85291    0.07830    0.12700    1.000
    H51      H        0.84190    0.00050    0.70980    1.000
    H52      H        0.86940    0.14310    0.69420    1.000
    C71      C        0.92070    0.03140    0.79050    1.000
    H53      H        0.88430    0.59310    0.85080    1.000
    H54      H        0.86640    0.65360    0.95050    1.000
    C72      C        0.94315    0.53760    0.96050    1.000
    C73      C        0.47409    0.35660    0.86510    1.000
    C74      C        0.50419    0.58420    0.85550    1.000
    C75      C        0.62150    0.88410    0.97280    1.000
    O35      O        0.69356    0.94920    0.09616    1.000
    O36      O        0.85062    0.01710    0.20380    1.000
    C76      C        0.66342    0.43960    0.22280    1.000
    C77      C        0.90981    0.08990    0.06820    1.000
    C78      C        0.93224    0.89930    0.81070    1.000
    C79      C        0.96411    0.12550    0.82000    1.000
    C80      C        0.95687    0.55870    0.05780    1.000
    C81      C        0.98659    0.47880    0.90320    1.000
    H55      H        0.48320    0.26800    0.87890    1.000
    C82      C        0.41547    0.39090    0.83150    1.000
    C83      C        0.44597    0.61740    0.82160    1.000
    H56      H        0.53370    0.65030    0.86320    1.000
    H57      H        0.62780    0.87080    0.90450    1.000
    H58      H        0.62390    0.79800    0.00450    1.000
    C84      C        0.55848    0.94500    0.98720    1.000
    C85      C        0.59904    0.47820    0.19030    1.000
    H59      H        0.68690    0.51900    0.23850    1.000
    H60      H        0.66200    0.38450    0.28030    1.000
    C86      C        0.96859    0.04680    0.11870    1.000
    H61      H        0.90410    0.03680    0.01010    1.000
    H62      H        0.91420    0.18200    0.04830    1.000
    H63      H        0.90300    0.83550    0.79420    1.000
    C87      C        0.98690    0.86000    0.85550    1.000
    C88      C        0.01884    0.08580    0.86420    1.000
    H64      H        0.95640    0.21570    0.81000    1.000
    H65      H        0.92810    0.59800    0.09700    1.000
    H66      H        0.97780    0.46440    0.83800    1.000
    H67      H        0.38580    0.32500    0.82370    1.000
    H68      H        0.43700    0.70570    0.80660    1.000
    C89      C        0.51549    0.95250    0.91120    1.000
    C90      C        0.54185    0.99460    0.07610    1.000
    H69      H        0.99380    0.77020    0.86830    1.000
    H70      H        0.04760    0.14990    0.88260    1.000
    H71      H        0.52580    0.92100    0.85060    1.000
    H72      H        0.56980    0.99200    0.12790    1.000
    Gd7      Gd       0.25952    0.93902    0.76962    1.000
    O37      O        0.36389    0.00390    0.71557    1.000
    O38      O        0.32390    0.83410    0.63739    1.000
    O39      O        0.21451    0.73620    0.70536    1.000
    O40      O        0.21829    0.97440    0.60940    1.000
    C91      C        0.36713    0.91890    0.64980    1.000
    Gd8      Gd       0.24855    0.75051    0.52903    1.000
    C92      C        0.18268    0.63230    0.68580    1.000
    C93      C        0.16531    0.96380    0.56860    1.000
    C94      C        0.41892    0.91560    0.58050    1.000
    O41      O        0.18790    0.57730    0.60572    1.000
    O42      O        0.31454    0.57200    0.53714    1.000
    O43      O        0.15263    0.86390    0.51746    1.000
    O44      O        0.30934    0.73800    0.36111    1.000
    O45      O        0.28024    0.92770    0.42266    1.000
    O46      O        0.19643    0.63610    0.40427    1.000
    C95      C        0.13907    0.57590    0.75760    1.000
    C96      C        0.11916    0.07370    0.58100    1.000
    H73      H        0.42130    0.82640    0.55380    1.000
    H74      H        0.40910    0.97570    0.52750    1.000
    C97      C        0.48124    0.95240    0.62180    1.000
    C98      C        0.32928    0.47470    0.48580    1.000
    C99      C        0.30655    0.86410    0.35670    1.000
    C100     C        0.14709    0.57830    0.37300    1.000
    H75      H        0.15810    0.50050    0.79020    1.000
    H76      H        0.13060    0.64310    0.80580    1.000
    C101     C        0.07930    0.53140    0.70950    1.000
    H77      H        0.11570    0.09310    0.64920    1.000
    H78      H        0.13360    0.15360    0.54950    1.000
    C102     C        0.05685    0.03760    0.53950    1.000
    C103     C        0.52591    0.85660    0.63490    1.000
    C104     C        0.49581    0.08420    0.64450    1.000
    C105     C        0.37850    0.38410    0.52720    1.000
    O47      O        0.30644    0.44920    0.40384    1.000
    O48      O        0.14938    0.51710    0.29620    1.000
    C106     C        0.33658    0.93960    0.27720    1.000
    C107     C        0.09019    0.58990    0.43180    1.000
    C108     C        0.06776    0.39930    0.68930    1.000
    C109     C        0.03589    0.62550    0.68000    1.000
    C110     C        0.04313    0.05870    0.44220    1.000
    C111     C        0.01341    0.97880    0.59680    1.000
    H79      H        0.51680    0.76800    0.62110    1.000
    C112     C        0.58453    0.89090    0.66850    1.000
    C113     C        0.55403    0.11740    0.67840    1.000
    H80      H        0.46630    0.15030    0.63680    1.000
    H81      H        0.37220    0.37080    0.59550    1.000
    H82      H        0.37610    0.29800    0.49550    1.000
    C114     C        0.44152    0.44500    0.51280    1.000
    C115     C        0.40096    0.97820    0.30970    1.000
    H83      H        0.31310    0.01900    0.26150    1.000
    H84      H        0.33800    0.88450    0.21970    1.000
    C116     C        0.03141    0.54680    0.38130    1.000
    H85      H        0.09590    0.53680    0.48990    1.000
    H86      H        0.08580    0.68200    0.45170    1.000
    H87      H        0.09700    0.33550    0.70580    1.000
    C117     C        0.01310    0.36000    0.64450    1.000
    C118     C        0.98116    0.58580    0.63580    1.000
    H88      H        0.04360    0.71570    0.69000    1.000
    H89      H        0.07190    0.09800    0.40300    1.000
    H90      H        0.02220    0.96440    0.66200    1.000
    H91      H        0.61420    0.82500    0.67630    1.000
    H92      H        0.56300    0.20570    0.69340    1.000
    C119     C        0.48451    0.45250    0.58880    1.000
    C120     C        0.45815    0.49460    0.42390    1.000
    H93      H        0.00620    0.27020    0.63170    1.000
    H94      H        0.95240    0.64990    0.61740    1.000
    H95      H        0.47420    0.42100    0.64940    1.000
    H96      H        0.43020    0.49200    0.37210    1.000
