# CIF file generated by openbabel 3.1.0, see https://openbabel.org
data_I
_chemical_name_common 'image0'
_cell_length_a 9.7216
_cell_length_b 10.4273
_cell_length_c 16.4046
_cell_angle_alpha 90
_cell_angle_beta 112.678
_cell_angle_gamma 90
_space_group_name_H-M_alt 'P 1'
_space_group_name_Hall 'P 1'
loop_
    _symmetry_equiv_pos_as_xyz
    x,y,z
loop_
    _atom_site_label
    _atom_site_type_symbol
    _atom_site_fract_x
    _atom_site_fract_y
    _atom_site_fract_z
    _atom_site_occupancy
    C1       C        0.67880    0.06150    0.96760    1.000
    H1       H        0.60920    0.11840    0.93030    1.000
    C2       C        0.64300    0.93420    0.96790    1.000
    H2       H        0.54940    0.90450    0.93120    1.000
    C3       C        0.74610    0.85170    0.02260    1.000
    H3       H        0.72280    0.76540    0.02330    1.000
    C4       C        0.88420    0.89580    0.07670    1.000
    H4       H        0.95390    0.83910    0.11420    1.000
    C5       C        0.92080    0.02400    0.07600    1.000
    C6       C        0.06890    0.07900    0.13050    1.000
    H5       H        0.09490    0.14300    0.09600    1.000
    H6       H        0.14320    0.01150    0.14490    1.000
    C7       C        0.92820    0.96900    0.46700    1.000
    C8       C        0.51720    0.93750    0.52660    1.000
    Ho1      Ho       0.17796    0.89640    0.39293    1.000
    N1       N        0.81440    0.10440    0.02140    1.000
    O1       O        0.06060    0.04970    0.29240    1.000
    O2       O        0.23480    0.21380    0.27190    1.000
    H7       H        0.28680    0.17370    0.31600    1.000
    O3       O        0.95820    0.25380    0.20991    1.000
    O4       O        0.84730    0.22750    0.01780    1.000
    O5       O        0.81400    0.97910    0.48420    1.000
    O6       O        0.93680    0.91540    0.40170    1.000
    O7       O        0.42170    0.85110    0.50330    1.000
    O8       O        0.64160    0.93320    0.59010    1.000
    P1       P        0.07448    0.15183    0.23178    1.000
    C9       C        0.32120    0.56150    0.53240    1.000
    H8       H        0.39080    0.61840    0.56970    1.000
    C10      C        0.35700    0.43420    0.53210    1.000
    H9       H        0.45060    0.40450    0.56880    1.000
    C11      C        0.25390    0.35170    0.47740    1.000
    H10      H        0.27720    0.26540    0.47670    1.000
    C12      C        0.11580    0.39580    0.42330    1.000
    H11      H        0.04610    0.33910    0.38580    1.000
    C13      C        0.07920    0.52400    0.42400    1.000
    C14      C        0.93110    0.57900    0.36950    1.000
    H12      H        0.90510    0.64300    0.40400    1.000
    H13      H        0.85680    0.51150    0.35510    1.000
    C15      C        0.07180    0.46900    0.03300    1.000
    C16      C        0.48280    0.43750    0.97340    1.000
    Ho2      Ho       0.82204    0.39640    0.10707    1.000
    N2       N        0.18560    0.60440    0.47860    1.000
    O9       O        0.93940    0.54970    0.20760    1.000
    O10      O        0.76520    0.71380    0.22810    1.000
    H14      H        0.71320    0.67370    0.18400    1.000
    O11      O        0.04180    0.75380    0.29009    1.000
    O12      O        0.15270    0.72750    0.48220    1.000
    O13      O        0.18600    0.47910    0.01580    1.000
    O14      O        0.06320    0.41540    0.09830    1.000
    O15      O        0.57830    0.35110    0.99670    1.000
    O16      O        0.35840    0.43320    0.90990    1.000
    P2       P        0.92552    0.65183    0.26822    1.000
    C17      C        0.32120    0.93850    0.03240    1.000
    H15      H        0.39080    0.88160    0.06970    1.000
    C18      C        0.35700    0.06580    0.03210    1.000
    H16      H        0.45060    0.09550    0.06880    1.000
    C19      C        0.25390    0.14830    0.97740    1.000
    H17      H        0.27720    0.23460    0.97670    1.000
    C20      C        0.11580    0.10420    0.92330    1.000
    H18      H        0.04610    0.16090    0.88580    1.000
    C21      C        0.07920    0.97600    0.92400    1.000
    C22      C        0.93110    0.92100    0.86950    1.000
    H19      H        0.90510    0.85700    0.90400    1.000
    H20      H        0.85680    0.98850    0.85510    1.000
    C23      C        0.07180    0.03100    0.53300    1.000
    C24      C        0.48280    0.06250    0.47340    1.000
    Ho3      Ho       0.82204    0.10360    0.60707    1.000
    N3       N        0.18560    0.89560    0.97860    1.000
    O17      O        0.93940    0.95030    0.70760    1.000
    O18      O        0.76520    0.78620    0.72810    1.000
    H21      H        0.71320    0.82630    0.68400    1.000
    O19      O        0.04180    0.74620    0.79009    1.000
    O20      O        0.15270    0.77250    0.98220    1.000
    O21      O        0.18600    0.02090    0.51580    1.000
    O22      O        0.06320    0.08460    0.59830    1.000
    O23      O        0.57830    0.14890    0.49670    1.000
    O24      O        0.35840    0.06680    0.40990    1.000
    P3       P        0.92552    0.84817    0.76822    1.000
    C25      C        0.67880    0.43850    0.46760    1.000
    H22      H        0.60920    0.38160    0.43030    1.000
    C26      C        0.64300    0.56580    0.46790    1.000
    H23      H        0.54940    0.59550    0.43120    1.000
    C27      C        0.74610    0.64830    0.52260    1.000
    H24      H        0.72280    0.73460    0.52330    1.000
    C28      C        0.88420    0.60420    0.57670    1.000
    H25      H        0.95390    0.66090    0.61420    1.000
    C29      C        0.92080    0.47600    0.57600    1.000
    C30      C        0.06890    0.42100    0.63050    1.000
    H26      H        0.09490    0.35700    0.59600    1.000
    H27      H        0.14320    0.48850    0.64490    1.000
    C31      C        0.92820    0.53100    0.96700    1.000
    C32      C        0.51720    0.56250    0.02660    1.000
    Ho4      Ho       0.17796    0.60360    0.89293    1.000
    N4       N        0.81440    0.39560    0.52140    1.000
    O25      O        0.06060    0.45030    0.79240    1.000
    O26      O        0.23480    0.28620    0.77190    1.000
    H28      H        0.28680    0.32630    0.81600    1.000
    O27      O        0.95820    0.24620    0.70991    1.000
    O28      O        0.84730    0.27250    0.51780    1.000
    O29      O        0.81400    0.52090    0.98420    1.000
    O30      O        0.93680    0.58460    0.90170    1.000
    O31      O        0.42170    0.64890    0.00330    1.000
    O32      O        0.64160    0.56680    0.09010    1.000
    P4       P        0.07448    0.34817    0.73178    1.000
