# CIF file generated by openbabel 3.1.0, see https://openbabel.org
data_I
_chemical_name_common 'image0'
_cell_length_a 10.3277
_cell_length_b 17.6705
_cell_length_c 10.6009
_cell_angle_alpha 90
_cell_angle_beta 91.7
_cell_angle_gamma 90
_space_group_name_H-M_alt 'P 1'
_space_group_name_Hall 'P 1'
loop_
    _symmetry_equiv_pos_as_xyz
    x,y,z
loop_
    _atom_site_label
    _atom_site_type_symbol
    _atom_site_fract_x
    _atom_site_fract_y
    _atom_site_fract_z
    _atom_site_occupancy
    Zn1      Zn       0.23374    0.16877    0.49456    1.000
    Zn2      Zn       0.01116    0.17478    0.80813    1.000
    P1       P        0.29878    0.22838    0.76253    1.000
    H1       H        0.40220    0.19310    0.80480    1.000
    P2       P        0.94171    0.20902    0.52879    1.000
    H2       H        0.84650    0.18010    0.49660    1.000
    O1       O        0.19670    0.17178    0.79770    1.000
    O2       O        0.30910    0.23885    0.62050    1.000
    O3       O        0.28600    0.30439    0.82700    1.000
    O4       O        0.05080    0.15430    0.50010    1.000
    O5       O        0.94550    0.28110    0.45790    1.000
    O6       O        0.92800    0.22620    0.66740    1.000
    N1       N        0.31690    0.06850    0.54170    1.000
    N2       N        0.44660    0.99260    0.64940    1.000
    N3       N        0.16620    0.03040    0.12470    1.000
    N4       N        0.04780    0.93230    0.17600    1.000
    C1       C        0.42620    0.06350    0.60760    1.000
    H3       H        0.48230    0.10380    0.62340    1.000
    C2       C        0.26410    0.99820    0.54120    1.000
    H4       H        0.18600    0.98500    0.50120    1.000
    C3       C        0.34260    0.95010    0.60790    1.000
    H5       H        0.32870    0.89890    0.62250    1.000
    C4       C        0.55150    0.96830    0.73580    1.000
    H6       H        0.63070    0.99400    0.71370    1.000
    H7       H        0.56510    0.91440    0.72560    1.000
    C5       C        0.52370    0.98470    0.87310    1.000
    C6       C        0.41120    0.02070    0.90890    1.000
    H8       H        0.35070    0.03490    0.84660    1.000
    C7       C        0.38530    0.03640    0.03290    1.000
    C8       C        0.26320    0.07820    0.06280    1.000
    H9       H        0.28500    0.12060    0.11760    1.000
    H10      H        0.22510    0.09850    0.98520    1.000
    C9       C        0.14480    0.95630    0.10830    1.000
    H11      H        0.19250    0.92550    0.05580    1.000
    C10      C        0.07690    0.05550    0.20690    1.000
    H12      H        0.06700    0.10470    0.23610    1.000
    C11      C        0.00530    0.99440    0.23740    1.000
    H13      H        0.93690    0.99500    0.29250    1.000
    Zn3      Zn       0.76626    0.66877    0.00544    1.000
    Zn4      Zn       0.98884    0.67478    0.69187    1.000
    P3       P        0.70122    0.72838    0.73747    1.000
    H14      H        0.59780    0.69310    0.69520    1.000
    P4       P        0.05829    0.70902    0.97121    1.000
    H15      H        0.15350    0.68010    0.00340    1.000
    O7       O        0.80330    0.67178    0.70230    1.000
    O8       O        0.69090    0.73885    0.87950    1.000
    O9       O        0.71400    0.80439    0.67300    1.000
    O10      O        0.94920    0.65430    0.99990    1.000
    O11      O        0.05450    0.78110    0.04210    1.000
    O12      O        0.07200    0.72620    0.83260    1.000
    N5       N        0.68310    0.56850    0.95830    1.000
    N6       N        0.55340    0.49260    0.85060    1.000
    N7       N        0.83380    0.53040    0.37530    1.000
    N8       N        0.95220    0.43230    0.32400    1.000
    C12      C        0.57380    0.56350    0.89240    1.000
    H16      H        0.51770    0.60380    0.87660    1.000
    C13      C        0.73590    0.49820    0.95880    1.000
    H17      H        0.81400    0.48500    0.99880    1.000
    C14      C        0.65740    0.45010    0.89210    1.000
    H18      H        0.67130    0.39890    0.87750    1.000
    C15      C        0.44850    0.46830    0.76420    1.000
    H19      H        0.36930    0.49400    0.78630    1.000
    H20      H        0.43490    0.41440    0.77440    1.000
    C16      C        0.47630    0.48470    0.62690    1.000
    C17      C        0.58880    0.52070    0.59110    1.000
    H21      H        0.64930    0.53490    0.65340    1.000
    C18      C        0.61470    0.53640    0.46710    1.000
    C19      C        0.73680    0.57820    0.43720    1.000
    H22      H        0.71500    0.62060    0.38240    1.000
    H23      H        0.77490    0.59850    0.51480    1.000
    C20      C        0.85520    0.45630    0.39170    1.000
    H24      H        0.80750    0.42550    0.44420    1.000
    C21      C        0.92310    0.55550    0.29310    1.000
    H25      H        0.93300    0.60470    0.26390    1.000
    C22      C        0.99470    0.49440    0.26260    1.000
    H26      H        0.06310    0.49500    0.20750    1.000
    Zn5      Zn       0.76626    0.83123    0.50544    1.000
    Zn6      Zn       0.98884    0.82522    0.19187    1.000
    P5       P        0.70122    0.77162    0.23747    1.000
    H27      H        0.59780    0.80690    0.19520    1.000
    P6       P        0.05829    0.79098    0.47121    1.000
    H28      H        0.15350    0.81990    0.50340    1.000
    O13      O        0.80330    0.82822    0.20230    1.000
    O14      O        0.69090    0.76115    0.37950    1.000
    O15      O        0.71400    0.69561    0.17300    1.000
    O16      O        0.94920    0.84570    0.49990    1.000
    O17      O        0.05450    0.71890    0.54210    1.000
    O18      O        0.07200    0.77380    0.33260    1.000
    N9       N        0.68310    0.93150    0.45830    1.000
    N10      N        0.55340    0.00740    0.35060    1.000
    N11      N        0.83380    0.96960    0.87530    1.000
    N12      N        0.95220    0.06770    0.82400    1.000
    C23      C        0.57380    0.93650    0.39240    1.000
    H29      H        0.51770    0.89620    0.37660    1.000
    C24      C        0.73590    0.00180    0.45880    1.000
    H30      H        0.81400    0.01500    0.49880    1.000
    C25      C        0.65740    0.04990    0.39210    1.000
    H31      H        0.67130    0.10110    0.37750    1.000
    C26      C        0.44850    0.03170    0.26420    1.000
    H32      H        0.36930    0.00600    0.28630    1.000
    H33      H        0.43490    0.08560    0.27440    1.000
    C27      C        0.47630    0.01530    0.12690    1.000
    C28      C        0.58880    0.97930    0.09110    1.000
    H34      H        0.64930    0.96510    0.15340    1.000
    C29      C        0.61470    0.96360    0.96710    1.000
    C30      C        0.73680    0.92180    0.93720    1.000
    H35      H        0.71500    0.87940    0.88240    1.000
    H36      H        0.77490    0.90150    0.01480    1.000
    C31      C        0.85520    0.04370    0.89170    1.000
    H37      H        0.80750    0.07450    0.94420    1.000
    C32      C        0.92310    0.94450    0.79310    1.000
    H38      H        0.93300    0.89530    0.76390    1.000
    C33      C        0.99470    0.00560    0.76260    1.000
    H39      H        0.06310    0.00500    0.70750    1.000
    Zn7      Zn       0.23374    0.33123    0.99456    1.000
    Zn8      Zn       0.01116    0.32522    0.30813    1.000
    P7       P        0.29878    0.27162    0.26253    1.000
    H40      H        0.40220    0.30690    0.30480    1.000
    P8       P        0.94171    0.29098    0.02879    1.000
    H41      H        0.84650    0.31990    0.99660    1.000
    O19      O        0.19670    0.32822    0.29770    1.000
    O20      O        0.30910    0.26115    0.12050    1.000
    O21      O        0.28600    0.19561    0.32700    1.000
    O22      O        0.05080    0.34570    0.00010    1.000
    O23      O        0.94550    0.21890    0.95790    1.000
    O24      O        0.92800    0.27380    0.16740    1.000
    N13      N        0.31690    0.43150    0.04170    1.000
    N14      N        0.44660    0.50740    0.14940    1.000
    N15      N        0.16620    0.46960    0.62470    1.000
    N16      N        0.04780    0.56770    0.67600    1.000
    C34      C        0.42620    0.43650    0.10760    1.000
    H42      H        0.48230    0.39620    0.12340    1.000
    C35      C        0.26410    0.50180    0.04120    1.000
    H43      H        0.18600    0.51500    0.00120    1.000
    C36      C        0.34260    0.54990    0.10790    1.000
    H44      H        0.32870    0.60110    0.12250    1.000
    C37      C        0.55150    0.53170    0.23580    1.000
    H45      H        0.63070    0.50600    0.21370    1.000
    H46      H        0.56510    0.58560    0.22560    1.000
    C38      C        0.52370    0.51530    0.37310    1.000
    C39      C        0.41120    0.47930    0.40890    1.000
    H47      H        0.35070    0.46510    0.34660    1.000
    C40      C        0.38530    0.46360    0.53290    1.000
    C41      C        0.26320    0.42180    0.56280    1.000
    H48      H        0.28500    0.37940    0.61760    1.000
    H49      H        0.22510    0.40150    0.48520    1.000
    C42      C        0.14480    0.54370    0.60830    1.000
    H50      H        0.19250    0.57450    0.55580    1.000
    C43      C        0.07690    0.44450    0.70690    1.000
    H51      H        0.06700    0.39530    0.73610    1.000
    C44      C        0.00530    0.50560    0.73740    1.000
    H52      H        0.93690    0.50500    0.79250    1.000
