# CIF file generated by openbabel 3.1.0, see https://openbabel.org
data_I
_chemical_name_common 'image0'
_cell_length_a 19.556
_cell_length_b 16.33
_cell_length_c 25.573
_cell_angle_alpha 90
_cell_angle_beta 91.097
_cell_angle_gamma 90
_space_group_name_H-M_alt 'P 1'
_space_group_name_Hall 'P 1'
loop_
    _symmetry_equiv_pos_as_xyz
    x,y,z
loop_
    _atom_site_label
    _atom_site_type_symbol
    _atom_site_fract_x
    _atom_site_fract_y
    _atom_site_fract_z
    _atom_site_occupancy
    C1       C        0.37000    0.38910    0.21910    1.000
    C2       C        0.12320    0.93660    0.37060    1.000
    C3       C        0.45840    0.59960    0.02590    1.000
    H1       H        0.42960    0.61870    0.99820    1.000
    C4       C        0.12380    0.06470    0.23340    1.000
    C5       C        0.27580    0.23740    0.35440    1.000
    C6       C        0.61110    0.58500    0.26310    1.000
    C7       C        0.47590    0.46110    0.18600    1.000
    C8       C        0.42770    0.45000    0.22380    1.000
    C9       C        0.13940    0.82290    0.31220    1.000
    C10      C        0.53500    0.37800    0.12440    1.000
    C11      C        0.01400    0.90020    0.29860    1.000
    C12      C        0.06850    0.00620    0.24650    1.000
    C13      C        0.07340    0.94150    0.28350    1.000
    C14      C        0.58310    0.51000    0.15060    1.000
    H2       H        0.62660    0.54040    0.15800    1.000
    C15      C        0.95270    0.91100    0.27230    1.000
    C16      C        0.31570    0.31050    0.43760    1.000
    C17      C        0.28460    0.25680    0.52210    1.000
    C18      C        0.53710    0.50710    0.19820    1.000
    C19      C        0.24970    0.19400    0.49640    1.000
    H3       H        0.22520    0.15510    0.51630    1.000
    C20      C        0.06060    0.90400    0.38690    1.000
    C21      C        0.02660    0.84600    0.34820    1.000
    H4       H        0.98420    0.81960    0.36160    1.000
    C22      C        0.54870    0.38140    0.49660    1.000
    H5       H        0.59050    0.38260    0.51620    1.000
    C23      C        0.13710    0.91510    0.31400    1.000
    H6       H        0.17970    0.94120    0.30080    1.000
    C24      C        0.31920    0.46570    0.48500    1.000
    C25      C        0.43700    0.48840    0.27310    1.000
    H7       H        0.40310    0.48350    0.29900    1.000
    C26      C        0.59600    0.41920    0.13700    1.000
    C27      C        0.15960    0.98850    0.40240    1.000
    H8       H        0.19970    0.01430    0.39010    1.000
    C28      C        0.28190    0.24660    0.41250    1.000
    C29      C        0.31650    0.31500    0.49200    1.000
    C30      C        0.48610    0.38610    0.52290    1.000
    H9       H        0.48510    0.38980    0.55990    1.000
    C31      C        0.13730    0.00330    0.45320    1.000
    H10      H        0.16390    0.03640    0.47640    1.000
    C32      C        0.35530    0.38120    0.41280    1.000
    H11      H        0.35690    0.37740    0.37380    1.000
    C33      C        0.48200    0.50430    0.09470    1.000
    C34      C        0.24990    0.18700    0.44280    1.000
    H12      H        0.22820    0.14150    0.42620    1.000
    C35      C        0.48900    0.37880    0.41400    1.000
    H13      H        0.48970    0.38070    0.37690    1.000
    C36      C        0.35340    0.39220    0.51280    1.000
    H14      H        0.35220    0.39680    0.55180    1.000
    C37      C        0.28980    0.52940    0.50940    1.000
    H15      H        0.28880    0.53210    0.54640    1.000
    C38      C        0.08090    0.78500    0.33140    1.000
    C39      C        0.65910    0.38270    0.13350    1.000
    H16      H        0.70010    0.41260    0.14000    1.000
    C40      C        0.51500    0.63990    0.03770    1.000
    H17      H        0.52580    0.68780    0.01840    1.000
    C41      C        0.53670    0.29540    0.11090    1.000
    H18      H        0.49600    0.26590    0.10270    1.000
    C42      C        0.19130    0.69370    0.29880    1.000
    H19      H        0.22890    0.66190    0.28730    1.000
    C43      C        0.00600    0.01600    0.21980    1.000
    H20      H        0.00210    0.05470    0.19220    1.000
    C44      C        0.54570    0.53930    0.24680    1.000
    C45      C        0.94940    0.96930    0.23360    1.000
    H21      H        0.90700    0.97810    0.21560    1.000
    C46      C        0.28410    0.25740    0.58030    1.000
    C47      C        0.19350    0.77470    0.29510    1.000
    H22      H        0.23250    0.80030    0.28070    1.000
    C48      C        0.26520    0.58770    0.42560    1.000
    H23      H        0.24750    0.63100    0.40460    1.000
    C49      C        0.03940    0.91840    0.43640    1.000
    H24      H        0.99900    0.89360    0.44910    1.000
    C50      C        0.49450    0.53200    0.28310    1.000
    H25      H        0.50000    0.55850    0.31600    1.000
    C51      C        0.07960    0.97160    0.46880    1.000
    H26      H        0.06400    0.98440    0.50280    1.000
    C52      C        0.56050    0.61350    0.07860    1.000
    H27      H        0.60260    0.64070    0.08580    1.000
    C53      C        0.43990    0.52920    0.05350    1.000
    H28      H        0.39970    0.49940    0.04420    1.000
    C54      C        0.26110    0.59130    0.47850    1.000
    H29      H        0.23860    0.63610    0.49450    1.000
    C55      C        0.47120    0.43110    0.12920    1.000
    H30      H        0.42780    0.40100    0.12090    1.000
    C56      C        0.59990    0.25820    0.11000    1.000
    H31      H        0.60230    0.20140    0.10210    1.000
    C57      C        0.07830    0.70240    0.33600    1.000
    H32      H        0.03930    0.67690    0.35040    1.000
    C58      C        0.55020    0.37510    0.44310    1.000
    H33      H        0.59250    0.36830    0.42600    1.000
    C59      C        0.29530    0.52040    0.40250    1.000
    H34      H        0.29710    0.51790    0.36540    1.000
    C60      C        0.42770    0.37970    0.43980    1.000
    C61      C        0.88780    0.86530    0.28190    1.000
    C62      C        0.32240    0.45770    0.43130    1.000
    C63      C        0.42540    0.38510    0.49270    1.000
    C64      C        0.54100    0.54930    0.10580    1.000
    C65      C        0.13340    0.65450    0.31960    1.000
    H35      H        0.13190    0.59650    0.32240    1.000
    C66      C        0.66050    0.30060    0.12010    1.000
    H36      H        0.70310    0.27300    0.11790    1.000
    O1       O        0.38540    0.32730    0.19410    1.000
    O2       O        0.31500    0.40430    0.24080    1.000
    O3       O        0.66480    0.56850    0.24210    1.000
    O4       O        0.26990    0.16750    0.33570    1.000
    O5       O        0.27340    0.30340    0.32920    1.000
    O6       O        0.83740    0.89080    0.25570    1.000
    O7       O        0.33930    0.28160    0.60280    1.000
    O8       O        0.24870    0.22290    0.21410    1.000
    O9       O        0.11240    0.12210    0.20220    1.000
    O10      O        0.18060    0.05490    0.25830    1.000
    O11      O        0.23430    0.22870    0.60380    1.000
    O12      O        0.60170    0.63960    0.29620    1.000
    O13      O        0.88810    0.80700    0.31350    1.000
    Zn1      Zn       0.33330    0.22427    0.17748    1.000
    Zn2      Zn       0.25114    0.13561    0.26296    1.000
    Zn3      Zn       0.17105    0.20892    0.16223    1.000
    Zn4      Zn       0.24348    0.32172    0.25520    1.000
    C67      C        0.63000    0.88910    0.28090    1.000
    C68      C        0.87680    0.43660    0.12940    1.000
    C69      C        0.54160    0.09960    0.47410    1.000
    H37      H        0.57040    0.11870    0.50180    1.000
    C70      C        0.87620    0.56470    0.26660    1.000
    C71      C        0.72420    0.73740    0.14560    1.000
    C72      C        0.38890    0.08500    0.23690    1.000
    C73      C        0.52410    0.96110    0.31400    1.000
    C74      C        0.57230    0.95000    0.27620    1.000
    C75      C        0.86060    0.32290    0.18780    1.000
    C76      C        0.46500    0.87800    0.37560    1.000
    C77      C        0.98600    0.40020    0.20140    1.000
    C78      C        0.93150    0.50620    0.25350    1.000
    C79      C        0.92660    0.44150    0.21650    1.000
    C80      C        0.41690    0.01000    0.34940    1.000
    H38      H        0.37340    0.04040    0.34200    1.000
    C81      C        0.04730    0.41100    0.22770    1.000
    C82      C        0.68430    0.81050    0.06240    1.000
    C83      C        0.71540    0.75680    0.97790    1.000
    C84      C        0.46290    0.00710    0.30180    1.000
    C85      C        0.75030    0.69400    0.00360    1.000
    H39      H        0.77480    0.65510    0.98370    1.000
    C86      C        0.93940    0.40400    0.11310    1.000
    C87      C        0.97340    0.34600    0.15180    1.000
    H40      H        0.01580    0.31960    0.13840    1.000
    C88      C        0.45130    0.88140    0.00340    1.000
    H41      H        0.40950    0.88260    0.98380    1.000
    C89      C        0.86290    0.41510    0.18600    1.000
    H42      H        0.82030    0.44120    0.19920    1.000
    C90      C        0.68080    0.96570    0.01500    1.000
    C91      C        0.56300    0.98840    0.22690    1.000
    H43      H        0.59690    0.98350    0.20100    1.000
    C92      C        0.40400    0.91920    0.36300    1.000
    C93      C        0.84040    0.48850    0.09760    1.000
    H44      H        0.80030    0.51430    0.10990    1.000
    C94      C        0.71810    0.74660    0.08750    1.000
    C95      C        0.68350    0.81500    0.00800    1.000
    C96      C        0.51390    0.88610    0.97710    1.000
    H45      H        0.51490    0.88980    0.94010    1.000
    C97      C        0.86270    0.50330    0.04680    1.000
    H46      H        0.83610    0.53640    0.02360    1.000
    C98      C        0.64470    0.88120    0.08720    1.000
    H47      H        0.64310    0.87740    0.12620    1.000
    C99      C        0.51800    0.00430    0.40530    1.000
    C100     C        0.75010    0.68700    0.05720    1.000
    H48      H        0.77180    0.64150    0.07380    1.000
    C101     C        0.51100    0.87880    0.08600    1.000
    H49      H        0.51030    0.88070    0.12310    1.000
    C102     C        0.64660    0.89220    0.98720    1.000
    H50      H        0.64780    0.89680    0.94820    1.000
    C103     C        0.71020    0.02940    0.99060    1.000
    H51      H        0.71120    0.03210    0.95360    1.000
    C104     C        0.91910    0.28500    0.16860    1.000
    C105     C        0.34090    0.88270    0.36650    1.000
    H52      H        0.29990    0.91260    0.36000    1.000
    C106     C        0.48500    0.13990    0.46230    1.000
    H53      H        0.47420    0.18780    0.48160    1.000
    C107     C        0.46330    0.79540    0.38910    1.000
    H54      H        0.50400    0.76590    0.39730    1.000
    C108     C        0.80870    0.19370    0.20120    1.000
    H55      H        0.77110    0.16190    0.21270    1.000
    C109     C        0.99400    0.51600    0.28020    1.000
    H56      H        0.99790    0.55470    0.30780    1.000
    C110     C        0.45430    0.03930    0.25320    1.000
    C111     C        0.05060    0.46930    0.26640    1.000
    H57      H        0.09300    0.47810    0.28440    1.000
    C112     C        0.71590    0.75740    0.91970    1.000
    C113     C        0.80650    0.27470    0.20490    1.000
    H58      H        0.76750    0.30030    0.21930    1.000
    C114     C        0.73480    0.08770    0.07440    1.000
    H59      H        0.75250    0.13100    0.09540    1.000
    C115     C        0.96060    0.41840    0.06360    1.000
    H60      H        0.00100    0.39360    0.05090    1.000
    C116     C        0.50550    0.03200    0.21690    1.000
    H61      H        0.50000    0.05850    0.18400    1.000
    C117     C        0.92040    0.47160    0.03120    1.000
    H62      H        0.93600    0.48440    0.99720    1.000
    C118     C        0.43950    0.11350    0.42140    1.000
    H63      H        0.39740    0.14070    0.41420    1.000
    C119     C        0.56010    0.02920    0.44650    1.000
    H64      H        0.60030    0.99940    0.45580    1.000
    C120     C        0.73890    0.09130    0.02150    1.000
    H65      H        0.76140    0.13610    0.00550    1.000
    C121     C        0.52880    0.93110    0.37080    1.000
    H66      H        0.57220    0.90100    0.37910    1.000
    C122     C        0.40010    0.75820    0.39000    1.000
    H67      H        0.39770    0.70140    0.39790    1.000
    C123     C        0.92170    0.20240    0.16400    1.000
    H68      H        0.96070    0.17690    0.14960    1.000
    C124     C        0.44980    0.87510    0.05690    1.000
    H69      H        0.40750    0.86830    0.07400    1.000
    C125     C        0.70470    0.02040    0.09750    1.000
    H70      H        0.70290    0.01790    0.13460    1.000
    C126     C        0.57230    0.87970    0.06020    1.000
    C127     C        0.11220    0.36530    0.21810    1.000
    C128     C        0.67760    0.95770    0.06870    1.000
    C129     C        0.57460    0.88510    0.00730    1.000
    C130     C        0.45900    0.04930    0.39420    1.000
    C131     C        0.86660    0.15450    0.18040    1.000
    H71      H        0.86810    0.09650    0.17760    1.000
    C132     C        0.33950    0.80060    0.37990    1.000
    H72      H        0.29690    0.77300    0.38210    1.000
    O14      O        0.61460    0.82730    0.30590    1.000
    O15      O        0.68500    0.90430    0.25920    1.000
    O16      O        0.33520    0.06850    0.25790    1.000
    O17      O        0.73010    0.66750    0.16430    1.000
    O18      O        0.72660    0.80340    0.17080    1.000
    O19      O        0.16260    0.39080    0.24430    1.000
    O20      O        0.66070    0.78160    0.89720    1.000
    O21      O        0.75130    0.72290    0.28590    1.000
    O22      O        0.88760    0.62210    0.29780    1.000
    O23      O        0.81940    0.55490    0.24170    1.000
    O24      O        0.76570    0.72870    0.89620    1.000
    O25      O        0.39830    0.13960    0.20380    1.000
    O26      O        0.11190    0.30700    0.18650    1.000
    Zn5      Zn       0.66670    0.72427    0.32252    1.000
    Zn6      Zn       0.74886    0.63561    0.23704    1.000
    Zn7      Zn       0.82895    0.70892    0.33777    1.000
    Zn8      Zn       0.75652    0.82172    0.24480    1.000
    C133     C        0.63000    0.61090    0.78090    1.000
    C134     C        0.87680    0.06340    0.62940    1.000
    C135     C        0.54160    0.40040    0.97410    1.000
    H73      H        0.57040    0.38130    0.00180    1.000
    C136     C        0.87620    0.93530    0.76660    1.000
    C137     C        0.72420    0.76260    0.64560    1.000
    C138     C        0.38890    0.41500    0.73690    1.000
    C139     C        0.52410    0.53890    0.81400    1.000
    C140     C        0.57230    0.55000    0.77620    1.000
    C141     C        0.86060    0.17710    0.68780    1.000
    C142     C        0.46500    0.62200    0.87560    1.000
    C143     C        0.98600    0.09980    0.70140    1.000
    C144     C        0.93150    0.99380    0.75350    1.000
    C145     C        0.92660    0.05850    0.71650    1.000
    C146     C        0.41690    0.49000    0.84940    1.000
    H74      H        0.37340    0.45960    0.84200    1.000
    C147     C        0.04730    0.08900    0.72770    1.000
    C148     C        0.68430    0.68950    0.56240    1.000
    C149     C        0.71540    0.74320    0.47790    1.000
    C150     C        0.46290    0.49290    0.80180    1.000
    C151     C        0.75030    0.80600    0.50360    1.000
    H75      H        0.77480    0.84490    0.48370    1.000
    C152     C        0.93940    0.09600    0.61310    1.000
    C153     C        0.97340    0.15400    0.65180    1.000
    H76      H        0.01580    0.18040    0.63840    1.000
    C154     C        0.45130    0.61860    0.50340    1.000
    H77      H        0.40950    0.61740    0.48380    1.000
    C155     C        0.86290    0.08490    0.68600    1.000
    H78      H        0.82030    0.05880    0.69920    1.000
    C156     C        0.68080    0.53430    0.51500    1.000
    C157     C        0.56300    0.51160    0.72690    1.000
    H79      H        0.59690    0.51650    0.70100    1.000
    C158     C        0.40400    0.58080    0.86300    1.000
    C159     C        0.84040    0.01150    0.59760    1.000
    H80      H        0.80030    0.98570    0.60990    1.000
    C160     C        0.71810    0.75340    0.58750    1.000
    C161     C        0.68350    0.68500    0.50800    1.000
    C162     C        0.51390    0.61390    0.47710    1.000
    H81      H        0.51490    0.61020    0.44010    1.000
    C163     C        0.86270    0.99670    0.54680    1.000
    H82      H        0.83610    0.96360    0.52360    1.000
    C164     C        0.64470    0.61880    0.58720    1.000
    H83      H        0.64310    0.62260    0.62620    1.000
    C165     C        0.51800    0.49570    0.90530    1.000
    C166     C        0.75010    0.81300    0.55720    1.000
    H84      H        0.77180    0.85850    0.57380    1.000
    C167     C        0.51100    0.62120    0.58600    1.000
    H85      H        0.51030    0.61930    0.62310    1.000
    C168     C        0.64660    0.60780    0.48720    1.000
    H86      H        0.64780    0.60320    0.44820    1.000
    C169     C        0.71020    0.47060    0.49060    1.000
    H87      H        0.71120    0.46790    0.45360    1.000
    C170     C        0.91910    0.21500    0.66860    1.000
    C171     C        0.34090    0.61730    0.86650    1.000
    H88      H        0.29990    0.58740    0.86000    1.000
    C172     C        0.48500    0.36010    0.96230    1.000
    H89      H        0.47420    0.31220    0.98160    1.000
    C173     C        0.46330    0.70460    0.88910    1.000
    H90      H        0.50400    0.73410    0.89730    1.000
    C174     C        0.80870    0.30630    0.70120    1.000
    H91      H        0.77110    0.33810    0.71270    1.000
    C175     C        0.99400    0.98400    0.78020    1.000
    H92      H        0.99790    0.94530    0.80780    1.000
    C176     C        0.45430    0.46070    0.75320    1.000
    C177     C        0.05060    0.03070    0.76640    1.000
    H93      H        0.09300    0.02190    0.78440    1.000
    C178     C        0.71590    0.74260    0.41970    1.000
    C179     C        0.80650    0.22530    0.70490    1.000
    H94      H        0.76750    0.19970    0.71930    1.000
    C180     C        0.73480    0.41230    0.57440    1.000
    H95      H        0.75250    0.36900    0.59540    1.000
    C181     C        0.96060    0.08160    0.56360    1.000
    H96      H        0.00100    0.10640    0.55090    1.000
    C182     C        0.50550    0.46800    0.71690    1.000
    H97      H        0.50000    0.44150    0.68400    1.000
    C183     C        0.92040    0.02840    0.53120    1.000
    H98      H        0.93600    0.01560    0.49720    1.000
    C184     C        0.43950    0.38650    0.92140    1.000
    H99      H        0.39740    0.35930    0.91420    1.000
    C185     C        0.56010    0.47080    0.94650    1.000
    H100     H        0.60030    0.50060    0.95580    1.000
    C186     C        0.73890    0.40870    0.52150    1.000
    H101     H        0.76140    0.36390    0.50550    1.000
    C187     C        0.52880    0.56890    0.87080    1.000
    H102     H        0.57220    0.59900    0.87910    1.000
    C188     C        0.40010    0.74180    0.89000    1.000
    H103     H        0.39770    0.79860    0.89790    1.000
    C189     C        0.92170    0.29760    0.66400    1.000
    H104     H        0.96070    0.32310    0.64960    1.000
    C190     C        0.44980    0.62490    0.55690    1.000
    H105     H        0.40750    0.63170    0.57400    1.000
    C191     C        0.70470    0.47960    0.59750    1.000
    H106     H        0.70290    0.48210    0.63460    1.000
    C192     C        0.57230    0.62030    0.56020    1.000
    C193     C        0.11220    0.13470    0.71810    1.000
    C194     C        0.67760    0.54230    0.56870    1.000
    C195     C        0.57460    0.61490    0.50730    1.000
    C196     C        0.45900    0.45070    0.89420    1.000
    C197     C        0.86660    0.34550    0.68040    1.000
    H107     H        0.86810    0.40350    0.67760    1.000
    C198     C        0.33950    0.69940    0.87990    1.000
    H108     H        0.29690    0.72700    0.88210    1.000
    O27      O        0.61460    0.67270    0.80590    1.000
    O28      O        0.68500    0.59570    0.75920    1.000
    O29      O        0.33520    0.43150    0.75790    1.000
    O30      O        0.73010    0.83250    0.66430    1.000
    O31      O        0.72660    0.69660    0.67080    1.000
    O32      O        0.16260    0.10920    0.74430    1.000
    O33      O        0.66070    0.71840    0.39720    1.000
    O34      O        0.75130    0.77710    0.78590    1.000
    O35      O        0.88760    0.87790    0.79780    1.000
    O36      O        0.81940    0.94510    0.74170    1.000
    O37      O        0.76570    0.77130    0.39620    1.000
    O38      O        0.39830    0.36040    0.70380    1.000
    O39      O        0.11190    0.19300    0.68650    1.000
    Zn9      Zn       0.66670    0.77573    0.82252    1.000
    Zn10     Zn       0.74886    0.86439    0.73704    1.000
    Zn11     Zn       0.82895    0.79108    0.83777    1.000
    Zn12     Zn       0.75652    0.67828    0.74480    1.000
    C199     C        0.37000    0.11090    0.71910    1.000
    C200     C        0.12320    0.56340    0.87060    1.000
    C201     C        0.45840    0.90040    0.52590    1.000
    H109     H        0.42960    0.88130    0.49820    1.000
    C202     C        0.12380    0.43530    0.73340    1.000
    C203     C        0.27580    0.26260    0.85440    1.000
    C204     C        0.61110    0.91500    0.76310    1.000
    C205     C        0.47590    0.03890    0.68600    1.000
    C206     C        0.42770    0.05000    0.72380    1.000
    C207     C        0.13940    0.67710    0.81220    1.000
    C208     C        0.53500    0.12200    0.62440    1.000
    C209     C        0.01400    0.59980    0.79860    1.000
    C210     C        0.06850    0.49380    0.74650    1.000
    C211     C        0.07340    0.55850    0.78350    1.000
    C212     C        0.58310    0.99000    0.65060    1.000
    H110     H        0.62660    0.95960    0.65800    1.000
    C213     C        0.95270    0.58900    0.77230    1.000
    C214     C        0.31570    0.18950    0.93760    1.000
    C215     C        0.28460    0.24320    0.02210    1.000
    C216     C        0.53710    0.99290    0.69820    1.000
    C217     C        0.24970    0.30600    0.99640    1.000
    H111     H        0.22520    0.34490    0.01630    1.000
    C218     C        0.06060    0.59600    0.88690    1.000
    C219     C        0.02660    0.65400    0.84820    1.000
    H112     H        0.98420    0.68040    0.86160    1.000
    C220     C        0.54870    0.11860    0.99660    1.000
    H113     H        0.59050    0.11740    0.01620    1.000
    C221     C        0.13710    0.58490    0.81400    1.000
    H114     H        0.17970    0.55880    0.80080    1.000
    C222     C        0.31920    0.03430    0.98500    1.000
    C223     C        0.43700    0.01160    0.77310    1.000
    H115     H        0.40310    0.01650    0.79900    1.000
    C224     C        0.59600    0.08080    0.63700    1.000
    C225     C        0.15960    0.51150    0.90240    1.000
    H116     H        0.19970    0.48570    0.89010    1.000
    C226     C        0.28190    0.25340    0.91250    1.000
    C227     C        0.31650    0.18500    0.99200    1.000
    C228     C        0.48610    0.11390    0.02290    1.000
    H117     H        0.48510    0.11020    0.05990    1.000
    C229     C        0.13730    0.49670    0.95320    1.000
    H118     H        0.16390    0.46360    0.97640    1.000
    C230     C        0.35530    0.11880    0.91280    1.000
    H119     H        0.35690    0.12260    0.87380    1.000
    C231     C        0.48200    0.99570    0.59470    1.000
    C232     C        0.24990    0.31300    0.94280    1.000
    H120     H        0.22820    0.35850    0.92620    1.000
    C233     C        0.48900    0.12120    0.91400    1.000
    H121     H        0.48970    0.11930    0.87690    1.000
    C234     C        0.35340    0.10780    0.01280    1.000
    H122     H        0.35220    0.10320    0.05180    1.000
    C235     C        0.28980    0.97060    0.00940    1.000
    H123     H        0.28880    0.96790    0.04640    1.000
    C236     C        0.08090    0.71500    0.83140    1.000
    C237     C        0.65910    0.11730    0.63350    1.000
    H124     H        0.70010    0.08740    0.64000    1.000
    C238     C        0.51500    0.86010    0.53770    1.000
    H125     H        0.52580    0.81220    0.51840    1.000
    C239     C        0.53670    0.20460    0.61090    1.000
    H126     H        0.49600    0.23410    0.60270    1.000
    C240     C        0.19130    0.80630    0.79880    1.000
    H127     H        0.22890    0.83810    0.78730    1.000
    C241     C        0.00600    0.48400    0.71980    1.000
    H128     H        0.00210    0.44530    0.69220    1.000
    C242     C        0.54570    0.96070    0.74680    1.000
    C243     C        0.94940    0.53070    0.73360    1.000
    H129     H        0.90700    0.52190    0.71560    1.000
    C244     C        0.28410    0.24260    0.08030    1.000
    C245     C        0.19350    0.72530    0.79510    1.000
    H130     H        0.23250    0.69970    0.78070    1.000
    C246     C        0.26520    0.91230    0.92560    1.000
    H131     H        0.24750    0.86900    0.90460    1.000
    C247     C        0.03940    0.58160    0.93640    1.000
    H132     H        0.99900    0.60640    0.94910    1.000
    C248     C        0.49450    0.96800    0.78310    1.000
    H133     H        0.50000    0.94150    0.81600    1.000
    C249     C        0.07960    0.52840    0.96880    1.000
    H134     H        0.06400    0.51560    0.00280    1.000
    C250     C        0.56050    0.88650    0.57860    1.000
    H135     H        0.60260    0.85930    0.58580    1.000
    C251     C        0.43990    0.97080    0.55350    1.000
    H136     H        0.39970    0.00060    0.54420    1.000
    C252     C        0.26110    0.90870    0.97850    1.000
    H137     H        0.23860    0.86390    0.99450    1.000
    C253     C        0.47120    0.06890    0.62920    1.000
    H138     H        0.42780    0.09900    0.62090    1.000
    C254     C        0.59990    0.24180    0.61000    1.000
    H139     H        0.60230    0.29860    0.60210    1.000
    C255     C        0.07830    0.79760    0.83600    1.000
    H140     H        0.03930    0.82310    0.85040    1.000
    C256     C        0.55020    0.12490    0.94310    1.000
    H141     H        0.59250    0.13170    0.92600    1.000
    C257     C        0.29530    0.97960    0.90250    1.000
    H142     H        0.29710    0.98210    0.86540    1.000
    C258     C        0.42770    0.12030    0.93980    1.000
    C259     C        0.88780    0.63470    0.78190    1.000
    C260     C        0.32240    0.04230    0.93130    1.000
    C261     C        0.42540    0.11490    0.99270    1.000
    C262     C        0.54100    0.95070    0.60580    1.000
    C263     C        0.13340    0.84550    0.81960    1.000
    H143     H        0.13190    0.90350    0.82240    1.000
    C264     C        0.66050    0.19940    0.62010    1.000
    H144     H        0.70310    0.22700    0.61790    1.000
    O40      O        0.38540    0.17270    0.69410    1.000
    O41      O        0.31500    0.09570    0.74080    1.000
    O42      O        0.66480    0.93150    0.74210    1.000
    O43      O        0.26990    0.33250    0.83570    1.000
    O44      O        0.27340    0.19660    0.82920    1.000
    O45      O        0.83740    0.60920    0.75570    1.000
    O46      O        0.33930    0.21840    0.10280    1.000
    O47      O        0.24870    0.27710    0.71410    1.000
    O48      O        0.11240    0.37790    0.70220    1.000
    O49      O        0.18060    0.44510    0.75830    1.000
    O50      O        0.23430    0.27130    0.10380    1.000
    O51      O        0.60170    0.86040    0.79620    1.000
    O52      O        0.88810    0.69300    0.81350    1.000
    Zn13     Zn       0.33330    0.27573    0.67748    1.000
    Zn14     Zn       0.25114    0.36439    0.76296    1.000
    Zn15     Zn       0.17105    0.29108    0.66223    1.000
    Zn16     Zn       0.24348    0.17828    0.75520    1.000
