# CIF file generated by openbabel 3.1.0, see https://openbabel.org
data_I
_chemical_name_common 'image0'
_cell_length_a 21.869
_cell_length_b 21.869
_cell_length_c 11.929
_cell_angle_alpha 90
_cell_angle_beta 90
_cell_angle_gamma 90
_space_group_name_H-M_alt 'P 1'
_space_group_name_Hall 'P 1'
loop_
    _symmetry_equiv_pos_as_xyz
    x,y,z
loop_
    _atom_site_label
    _atom_site_type_symbol
    _atom_site_fract_x
    _atom_site_fract_y
    _atom_site_fract_z
    _atom_site_occupancy
    Mo1      Mo       0.07875    0.64527    0.16763    1.000
    O1       O        0.06240    0.62280    0.01480    1.000
    O2       O        0.13410    0.57490    0.17170    1.000
    O3       O        0.27220    0.51560    0.89460    1.000
    O4       O        0.19980    0.62930    0.96700    1.000
    O5       O        0.15160    0.55950    0.82900    1.000
    O6       O        0.26690    0.54990    0.13080    1.000
    C1       C        0.38300    0.54200    0.24100    1.000
    C2       C        0.43100    0.54200    0.31900    1.000
    C3       C        0.38300    0.46000    0.41900    1.000
    C4       C        0.33600    0.45900    0.34200    1.000
    La1      La       0.17648    0.51557    0.02938    1.000
    O7       O        0.17630    0.59580    0.94000    1.000
    O8       O        0.14980    0.52240    0.82200    1.000
    C5       C        0.34800    0.55320    0.31300    1.000
    C6       C        0.39710    0.55410    0.39000    1.000
    C7       C        0.42100    0.54950    0.33900    1.000
    C8       C        0.36940    0.55190    0.26900    1.000
    Mo2      Mo       0.57875    0.14527    0.66763    1.000
    O9       O        0.56240    0.12280    0.51480    1.000
    O10      O        0.63410    0.07490    0.67170    1.000
    O11      O        0.77220    0.01560    0.39460    1.000
    O12      O        0.69980    0.12930    0.46700    1.000
    O13      O        0.65160    0.05950    0.32900    1.000
    O14      O        0.76690    0.04990    0.63080    1.000
    C9       C        0.88300    0.04200    0.74100    1.000
    C10      C        0.93100    0.04200    0.81900    1.000
    C11      C        0.88300    0.96000    0.91900    1.000
    C12      C        0.83600    0.95900    0.84200    1.000
    La2      La       0.67648    0.01557    0.52938    1.000
    O15      O        0.67630    0.09580    0.44000    1.000
    O16      O        0.64980    0.02240    0.32200    1.000
    C13      C        0.84800    0.05320    0.81300    1.000
    C14      C        0.89710    0.05410    0.89000    1.000
    C15      C        0.92100    0.04950    0.83900    1.000
    C16      C        0.86940    0.05190    0.76900    1.000
    Mo3      Mo       0.92125    0.35473    0.16763    1.000
    O17      O        0.93760    0.37720    0.01480    1.000
    O18      O        0.86590    0.42510    0.17170    1.000
    O19      O        0.72780    0.48440    0.89460    1.000
    O20      O        0.80020    0.37070    0.96700    1.000
    O21      O        0.84840    0.44050    0.82900    1.000
    O22      O        0.73310    0.45010    0.13080    1.000
    C17      C        0.61700    0.45800    0.24100    1.000
    C18      C        0.56900    0.45800    0.31900    1.000
    C19      C        0.61700    0.54000    0.41900    1.000
    C20      C        0.66400    0.54100    0.34200    1.000
    La3      La       0.82352    0.48443    0.02938    1.000
    O23      O        0.82370    0.40420    0.94000    1.000
    O24      O        0.85020    0.47760    0.82200    1.000
    C21      C        0.65200    0.44680    0.31300    1.000
    C22      C        0.60290    0.44590    0.39000    1.000
    C23      C        0.57900    0.45050    0.33900    1.000
    C24      C        0.63060    0.44810    0.26900    1.000
    Mo4      Mo       0.42125    0.85473    0.66763    1.000
    O25      O        0.43760    0.87720    0.51480    1.000
    O26      O        0.36590    0.92510    0.67170    1.000
    O27      O        0.22780    0.98440    0.39460    1.000
    O28      O        0.30020    0.87070    0.46700    1.000
    O29      O        0.34840    0.94050    0.32900    1.000
    O30      O        0.23310    0.95010    0.63080    1.000
    C25      C        0.11700    0.95800    0.74100    1.000
    C26      C        0.06900    0.95800    0.81900    1.000
    C27      C        0.11700    0.04000    0.91900    1.000
    C28      C        0.16400    0.04100    0.84200    1.000
    La4      La       0.32352    0.98443    0.52938    1.000
    O31      O        0.32370    0.90420    0.44000    1.000
    O32      O        0.35020    0.97760    0.32200    1.000
    C29      C        0.15200    0.94680    0.81300    1.000
    C30      C        0.10290    0.94590    0.89000    1.000
    C31      C        0.07900    0.95050    0.83900    1.000
    C32      C        0.13060    0.94810    0.76900    1.000
    Mo5      Mo       0.64527    0.92125    0.83237    1.000
    O33      O        0.62280    0.93760    0.98520    1.000
    O34      O        0.57490    0.86590    0.82830    1.000
    O35      O        0.51560    0.72780    0.10540    1.000
    O36      O        0.62930    0.80020    0.03300    1.000
    O37      O        0.55950    0.84840    0.17100    1.000
    O38      O        0.54990    0.73310    0.86920    1.000
    C33      C        0.54200    0.61700    0.75900    1.000
    C34      C        0.54200    0.56900    0.68100    1.000
    C35      C        0.46000    0.61700    0.58100    1.000
    C36      C        0.45900    0.66400    0.65800    1.000
    La5      La       0.51557    0.82352    0.97062    1.000
    O39      O        0.59580    0.82370    0.06000    1.000
    O40      O        0.52240    0.85020    0.17800    1.000
    C37      C        0.55320    0.65200    0.68700    1.000
    C38      C        0.55410    0.60290    0.61000    1.000
    C39      C        0.54950    0.57900    0.66100    1.000
    C40      C        0.55190    0.63060    0.73100    1.000
    Mo6      Mo       0.14527    0.42125    0.33237    1.000
    O41      O        0.12280    0.43760    0.48520    1.000
    O42      O        0.07490    0.36590    0.32830    1.000
    O43      O        0.01560    0.22780    0.60540    1.000
    O44      O        0.12930    0.30020    0.53300    1.000
    O45      O        0.05950    0.34840    0.67100    1.000
    O46      O        0.04990    0.23310    0.36920    1.000
    C41      C        0.04200    0.11700    0.25900    1.000
    C42      C        0.04200    0.06900    0.18100    1.000
    C43      C        0.96000    0.11700    0.08100    1.000
    C44      C        0.95900    0.16400    0.15800    1.000
    La6      La       0.01557    0.32352    0.47062    1.000
    O47      O        0.09580    0.32370    0.56000    1.000
    O48      O        0.02240    0.35020    0.67800    1.000
    C45      C        0.05320    0.15200    0.18700    1.000
    C46      C        0.05410    0.10290    0.11000    1.000
    C47      C        0.04950    0.07900    0.16100    1.000
    C48      C        0.05190    0.13060    0.23100    1.000
    Mo7      Mo       0.35473    0.07875    0.83237    1.000
    O49      O        0.37720    0.06240    0.98520    1.000
    O50      O        0.42510    0.13410    0.82830    1.000
    O51      O        0.48440    0.27220    0.10540    1.000
    O52      O        0.37070    0.19980    0.03300    1.000
    O53      O        0.44050    0.15160    0.17100    1.000
    O54      O        0.45010    0.26690    0.86920    1.000
    C49      C        0.45800    0.38300    0.75900    1.000
    C50      C        0.45800    0.43100    0.68100    1.000
    C51      C        0.54000    0.38300    0.58100    1.000
    C52      C        0.54100    0.33600    0.65800    1.000
    La7      La       0.48443    0.17648    0.97062    1.000
    O55      O        0.40420    0.17630    0.06000    1.000
    O56      O        0.47760    0.14980    0.17800    1.000
    C53      C        0.44680    0.34800    0.68700    1.000
    C54      C        0.44590    0.39710    0.61000    1.000
    C55      C        0.45050    0.42100    0.66100    1.000
    C56      C        0.44810    0.36940    0.73100    1.000
    Mo8      Mo       0.85473    0.57875    0.33237    1.000
    O57      O        0.87720    0.56240    0.48520    1.000
    O58      O        0.92510    0.63410    0.32830    1.000
    O59      O        0.98440    0.77220    0.60540    1.000
    O60      O        0.87070    0.69980    0.53300    1.000
    O61      O        0.94050    0.65160    0.67100    1.000
    O62      O        0.95010    0.76690    0.36920    1.000
    C57      C        0.95800    0.88300    0.25900    1.000
    C58      C        0.95800    0.93100    0.18100    1.000
    C59      C        0.04000    0.88300    0.08100    1.000
    C60      C        0.04100    0.83600    0.15800    1.000
    La8      La       0.98443    0.67648    0.47062    1.000
    O63      O        0.90420    0.67630    0.56000    1.000
    O64      O        0.97760    0.64980    0.67800    1.000
    C61      C        0.94680    0.84800    0.18700    1.000
    C62      C        0.94590    0.89710    0.11000    1.000
    C63      C        0.95050    0.92100    0.16100    1.000
    C64      C        0.94810    0.86940    0.23100    1.000
    Mo9      Mo       0.07875    0.35473    0.16763    1.000
    O65      O        0.06240    0.37720    0.01480    1.000
    O66      O        0.13410    0.42510    0.17170    1.000
    O67      O        0.27220    0.48440    0.89460    1.000
    O68      O        0.19980    0.37070    0.96700    1.000
    O69      O        0.15160    0.44050    0.82900    1.000
    O70      O        0.26690    0.45010    0.13080    1.000
    C65      C        0.38300    0.45800    0.24100    1.000
    C66      C        0.43100    0.45800    0.31900    1.000
    C67      C        0.38300    0.54000    0.41900    1.000
    C68      C        0.33600    0.54100    0.34200    1.000
    La9      La       0.17648    0.48443    0.02938    1.000
    O71      O        0.17630    0.40420    0.94000    1.000
    O72      O        0.14980    0.47760    0.82200    1.000
    C69      C        0.34800    0.44680    0.31300    1.000
    C70      C        0.39710    0.44590    0.39000    1.000
    C71      C        0.42100    0.45050    0.33900    1.000
    C72      C        0.36940    0.44810    0.26900    1.000
    Mo10     Mo       0.57875    0.85473    0.66763    1.000
    O73      O        0.56240    0.87720    0.51480    1.000
    O74      O        0.63410    0.92510    0.67170    1.000
    O75      O        0.77220    0.98440    0.39460    1.000
    O76      O        0.69980    0.87070    0.46700    1.000
    O77      O        0.65160    0.94050    0.32900    1.000
    O78      O        0.76690    0.95010    0.63080    1.000
    C73      C        0.88300    0.95800    0.74100    1.000
    C74      C        0.93100    0.95800    0.81900    1.000
    C75      C        0.88300    0.04000    0.91900    1.000
    C76      C        0.83600    0.04100    0.84200    1.000
    La10     La       0.67648    0.98443    0.52938    1.000
    O79      O        0.67630    0.90420    0.44000    1.000
    O80      O        0.64980    0.97760    0.32200    1.000
    C77      C        0.84800    0.94680    0.81300    1.000
    C78      C        0.89710    0.94590    0.89000    1.000
    C79      C        0.92100    0.95050    0.83900    1.000
    C80      C        0.86940    0.94810    0.76900    1.000
    Mo11     Mo       0.92125    0.64527    0.16763    1.000
    O81      O        0.93760    0.62280    0.01480    1.000
    O82      O        0.86590    0.57490    0.17170    1.000
    O83      O        0.72780    0.51560    0.89460    1.000
    O84      O        0.80020    0.62930    0.96700    1.000
    O85      O        0.84840    0.55950    0.82900    1.000
    O86      O        0.73310    0.54990    0.13080    1.000
    C81      C        0.61700    0.54200    0.24100    1.000
    C82      C        0.56900    0.54200    0.31900    1.000
    C83      C        0.61700    0.46000    0.41900    1.000
    C84      C        0.66400    0.45900    0.34200    1.000
    La11     La       0.82352    0.51557    0.02938    1.000
    O87      O        0.82370    0.59580    0.94000    1.000
    O88      O        0.85020    0.52240    0.82200    1.000
    C85      C        0.65200    0.55320    0.31300    1.000
    C86      C        0.60290    0.55410    0.39000    1.000
    C87      C        0.57900    0.54950    0.33900    1.000
    C88      C        0.63060    0.55190    0.26900    1.000
    Mo12     Mo       0.42125    0.14527    0.66763    1.000
    O89      O        0.43760    0.12280    0.51480    1.000
    O90      O        0.36590    0.07490    0.67170    1.000
    O91      O        0.22780    0.01560    0.39460    1.000
    O92      O        0.30020    0.12930    0.46700    1.000
    O93      O        0.34840    0.05950    0.32900    1.000
    O94      O        0.23310    0.04990    0.63080    1.000
    C89      C        0.11700    0.04200    0.74100    1.000
    C90      C        0.06900    0.04200    0.81900    1.000
    C91      C        0.11700    0.96000    0.91900    1.000
    C92      C        0.16400    0.95900    0.84200    1.000
    La12     La       0.32352    0.01557    0.52938    1.000
    O95      O        0.32370    0.09580    0.44000    1.000
    O96      O        0.35020    0.02240    0.32200    1.000
    C93      C        0.15200    0.05320    0.81300    1.000
    C94      C        0.10290    0.05410    0.89000    1.000
    C95      C        0.07900    0.04950    0.83900    1.000
    C96      C        0.13060    0.05190    0.76900    1.000
    Mo13     Mo       0.64527    0.07875    0.83237    1.000
    O97      O        0.62280    0.06240    0.98520    1.000
    O98      O        0.57490    0.13410    0.82830    1.000
    O99      O        0.51560    0.27220    0.10540    1.000
    O100     O        0.62930    0.19980    0.03300    1.000
    O101     O        0.55950    0.15160    0.17100    1.000
    O102     O        0.54990    0.26690    0.86920    1.000
    C97      C        0.54200    0.38300    0.75900    1.000
    C98      C        0.54200    0.43100    0.68100    1.000
    C99      C        0.46000    0.38300    0.58100    1.000
    C100     C        0.45900    0.33600    0.65800    1.000
    La13     La       0.51557    0.17648    0.97062    1.000
    O103     O        0.59580    0.17630    0.06000    1.000
    O104     O        0.52240    0.14980    0.17800    1.000
    C101     C        0.55320    0.34800    0.68700    1.000
    C102     C        0.55410    0.39710    0.61000    1.000
    C103     C        0.54950    0.42100    0.66100    1.000
    C104     C        0.55190    0.36940    0.73100    1.000
    Mo14     Mo       0.14527    0.57875    0.33237    1.000
    O105     O        0.12280    0.56240    0.48520    1.000
    O106     O        0.07490    0.63410    0.32830    1.000
    O107     O        0.01560    0.77220    0.60540    1.000
    O108     O        0.12930    0.69980    0.53300    1.000
    O109     O        0.05950    0.65160    0.67100    1.000
    O110     O        0.04990    0.76690    0.36920    1.000
    C105     C        0.04200    0.88300    0.25900    1.000
    C106     C        0.04200    0.93100    0.18100    1.000
    C107     C        0.96000    0.88300    0.08100    1.000
    C108     C        0.95900    0.83600    0.15800    1.000
    La14     La       0.01557    0.67648    0.47062    1.000
    O111     O        0.09580    0.67630    0.56000    1.000
    O112     O        0.02240    0.64980    0.67800    1.000
    C109     C        0.05320    0.84800    0.18700    1.000
    C110     C        0.05410    0.89710    0.11000    1.000
    C111     C        0.04950    0.92100    0.16100    1.000
    C112     C        0.05190    0.86940    0.23100    1.000
    Mo15     Mo       0.35473    0.92125    0.83237    1.000
    O113     O        0.37720    0.93760    0.98520    1.000
    O114     O        0.42510    0.86590    0.82830    1.000
    O115     O        0.48440    0.72780    0.10540    1.000
    O116     O        0.37070    0.80020    0.03300    1.000
    O117     O        0.44050    0.84840    0.17100    1.000
    O118     O        0.45010    0.73310    0.86920    1.000
    C113     C        0.45800    0.61700    0.75900    1.000
    C114     C        0.45800    0.56900    0.68100    1.000
    C115     C        0.54000    0.61700    0.58100    1.000
    C116     C        0.54100    0.66400    0.65800    1.000
    La15     La       0.48443    0.82352    0.97062    1.000
    O119     O        0.40420    0.82370    0.06000    1.000
    O120     O        0.47760    0.85020    0.17800    1.000
    C117     C        0.44680    0.65200    0.68700    1.000
    C118     C        0.44590    0.60290    0.61000    1.000
    C119     C        0.45050    0.57900    0.66100    1.000
    C120     C        0.44810    0.63060    0.73100    1.000
    Mo16     Mo       0.85473    0.42125    0.33237    1.000
    O121     O        0.87720    0.43760    0.48520    1.000
    O122     O        0.92510    0.36590    0.32830    1.000
    O123     O        0.98440    0.22780    0.60540    1.000
    O124     O        0.87070    0.30020    0.53300    1.000
    O125     O        0.94050    0.34840    0.67100    1.000
    O126     O        0.95010    0.23310    0.36920    1.000
    C121     C        0.95800    0.11700    0.25900    1.000
    C122     C        0.95800    0.06900    0.18100    1.000
    C123     C        0.04000    0.11700    0.08100    1.000
    C124     C        0.04100    0.16400    0.15800    1.000
    La16     La       0.98443    0.32352    0.47062    1.000
    O127     O        0.90420    0.32370    0.56000    1.000
    O128     O        0.97760    0.35020    0.67800    1.000
    C125     C        0.94680    0.15200    0.18700    1.000
    C126     C        0.94590    0.10290    0.11000    1.000
    C127     C        0.95050    0.07900    0.16100    1.000
    C128     C        0.94810    0.13060    0.23100    1.000
    Mo17     Mo       0.00000    0.55865    0.97075    1.000
    O129     O        0.00000    0.68310    0.17660    1.000
    O130     O        0.00000    0.55760    0.17450    1.000
    Mo18     Mo       0.50000    0.05865    0.47075    1.000
    O131     O        0.50000    0.18310    0.67660    1.000
    O132     O        0.50000    0.05760    0.67450    1.000
    Mo19     Mo       0.00000    0.44135    0.97075    1.000
    O133     O        0.00000    0.31690    0.17660    1.000
    O134     O        0.00000    0.44240    0.17450    1.000
    Mo20     Mo       0.50000    0.94135    0.47075    1.000
    O135     O        0.50000    0.81690    0.67660    1.000
    O136     O        0.50000    0.94240    0.67450    1.000
    Mo21     Mo       0.55865    0.00000    0.02925    1.000
    O137     O        0.68310    0.00000    0.82340    1.000
    O138     O        0.55760    0.00000    0.82550    1.000
    Mo22     Mo       0.05865    0.50000    0.52925    1.000
    O139     O        0.18310    0.50000    0.32340    1.000
    O140     O        0.05760    0.50000    0.32550    1.000
    Mo23     Mo       0.44135    0.00000    0.02925    1.000
    O141     O        0.31690    0.00000    0.82340    1.000
    O142     O        0.44240    0.00000    0.82550    1.000
    Mo24     Mo       0.94135    0.50000    0.52925    1.000
    O143     O        0.81690    0.50000    0.32340    1.000
    O144     O        0.94240    0.50000    0.32550    1.000
    O145     O        0.06590    0.50000    0.99370    1.000
    C129     C        0.28540    0.50000    0.16800    1.000
    C130     C        0.43080    0.50000    0.40740    1.000
    C131     C        0.33560    0.50000    0.25280    1.000
    O146     O        0.56590    0.00000    0.49370    1.000
    C132     C        0.78540    0.00000    0.66800    1.000
    C133     C        0.93080    0.00000    0.90740    1.000
    C134     C        0.83560    0.00000    0.75280    1.000
    O147     O        0.93410    0.50000    0.99370    1.000
    C135     C        0.71460    0.50000    0.16800    1.000
    C136     C        0.56920    0.50000    0.40740    1.000
    C137     C        0.66440    0.50000    0.25280    1.000
    O148     O        0.43410    0.00000    0.49370    1.000
    C138     C        0.21460    0.00000    0.66800    1.000
    C139     C        0.06920    0.00000    0.90740    1.000
    C140     C        0.16440    0.00000    0.75280    1.000
    O149     O        0.50000    0.93410    0.00630    1.000
    C141     C        0.50000    0.71460    0.83200    1.000
    C142     C        0.50000    0.56920    0.59260    1.000
    C143     C        0.50000    0.66440    0.74720    1.000
    O150     O        0.00000    0.43410    0.50630    1.000
    C144     C        0.00000    0.21460    0.33200    1.000
    C145     C        0.00000    0.06920    0.09260    1.000
    C146     C        0.00000    0.16440    0.24720    1.000
    O151     O        0.50000    0.06590    0.00630    1.000
    C147     C        0.50000    0.28540    0.83200    1.000
    C148     C        0.50000    0.43080    0.59260    1.000
    C149     C        0.50000    0.33560    0.74720    1.000
    O152     O        0.00000    0.56590    0.50630    1.000
    C150     C        0.00000    0.78540    0.33200    1.000
    C151     C        0.00000    0.93080    0.09260    1.000
    C152     C        0.00000    0.83560    0.24720    1.000
    P1       P        0.00000    0.50000    0.25000    1.000
    P2       P        0.50000    0.00000    0.75000    1.000
    Si1      Si       0.50000    0.50000    0.50000    1.000
    Si2      Si       0.00000    0.00000    0.00000    1.000
