# CIF file generated by openbabel 3.1.0, see https://openbabel.org
data_I
_chemical_name_common 'image0'
_cell_length_a 17.124
_cell_length_b 17.124
_cell_length_c 5.3921
_cell_angle_alpha 90
_cell_angle_beta 90
_cell_angle_gamma 90
_space_group_name_H-M_alt 'P 1'
_space_group_name_Hall 'P 1'
loop_
    _symmetry_equiv_pos_as_xyz
    x,y,z
loop_
    _atom_site_label
    _atom_site_type_symbol
    _atom_site_fract_x
    _atom_site_fract_y
    _atom_site_fract_z
    _atom_site_occupancy
    N1       N        0.27801    0.36691    0.25520    1.000
    N2       N        0.19234    0.33264    0.53860    1.000
    C1       C        0.26450    0.32068    0.44840    1.000
    C2       C        0.21040    0.41040    0.22710    1.000
    H1       H        0.20250    0.44820    0.10580    1.000
    C3       C        0.15810    0.39010    0.39950    1.000
    H2       H        0.10840    0.41100    0.42080    1.000
    C4       C        0.15410    0.28840    0.73770    1.000
    H3       H        0.13850    0.32350    0.86990    1.000
    H4       H        0.19010    0.25030    0.80570    1.000
    C5       C        0.08290    0.24750    0.63200    1.000
    H5       H        0.04750    0.28650    0.56580    1.000
    H6       H        0.09930    0.21440    0.49560    1.000
    C6       C        0.04000    0.19870    0.81740    1.000
    O1       O        0.97650    0.16960    0.74910    1.000
    O2       O        0.07010    0.19040    0.02870    1.000
    H7       H        0.04190    0.16280    0.11450    1.000
    N3       N        0.72199    0.63309    0.25520    1.000
    N4       N        0.80766    0.66736    0.53860    1.000
    C7       C        0.73550    0.67932    0.44840    1.000
    C8       C        0.78960    0.58960    0.22710    1.000
    H8       H        0.79750    0.55180    0.10580    1.000
    C9       C        0.84190    0.60990    0.39950    1.000
    H9       H        0.89160    0.58900    0.42080    1.000
    C10      C        0.84590    0.71160    0.73770    1.000
    H10      H        0.86150    0.67650    0.86990    1.000
    H11      H        0.80990    0.74970    0.80570    1.000
    C11      C        0.91710    0.75250    0.63200    1.000
    H12      H        0.95250    0.71350    0.56580    1.000
    H13      H        0.90070    0.78560    0.49560    1.000
    C12      C        0.96000    0.80130    0.81740    1.000
    O3       O        0.02350    0.83040    0.74910    1.000
    O4       O        0.92990    0.80960    0.02870    1.000
    H14      H        0.95810    0.83720    0.11450    1.000
    N5       N        0.13309    0.77801    0.25520    1.000
    N6       N        0.16736    0.69234    0.53860    1.000
    C13      C        0.17932    0.76450    0.44840    1.000
    C14      C        0.08960    0.71040    0.22710    1.000
    H15      H        0.05180    0.70250    0.10580    1.000
    C15      C        0.10990    0.65810    0.39950    1.000
    H16      H        0.08900    0.60840    0.42080    1.000
    C16      C        0.21160    0.65410    0.73770    1.000
    H17      H        0.17650    0.63850    0.86990    1.000
    H18      H        0.24970    0.69010    0.80570    1.000
    C17      C        0.25250    0.58290    0.63200    1.000
    H19      H        0.21350    0.54750    0.56580    1.000
    H20      H        0.28560    0.59930    0.49560    1.000
    C18      C        0.30130    0.54000    0.81740    1.000
    O5       O        0.33040    0.47650    0.74910    1.000
    O6       O        0.30960    0.57010    0.02870    1.000
    H21      H        0.33720    0.54190    0.11450    1.000
    N7       N        0.86691    0.22199    0.25520    1.000
    N8       N        0.83264    0.30766    0.53860    1.000
    C19      C        0.82068    0.23550    0.44840    1.000
    C20      C        0.91040    0.28960    0.22710    1.000
    H22      H        0.94820    0.29750    0.10580    1.000
    C21      C        0.89010    0.34190    0.39950    1.000
    H23      H        0.91100    0.39160    0.42080    1.000
    C22      C        0.78840    0.34590    0.73770    1.000
    H24      H        0.82350    0.36150    0.86990    1.000
    H25      H        0.75030    0.30990    0.80570    1.000
    C23      C        0.74750    0.41710    0.63200    1.000
    H26      H        0.78650    0.45250    0.56580    1.000
    H27      H        0.71440    0.40070    0.49560    1.000
    C24      C        0.69870    0.46000    0.81740    1.000
    O7       O        0.66960    0.52350    0.74910    1.000
    O8       O        0.69040    0.42990    0.02870    1.000
    H28      H        0.66280    0.45810    0.11450    1.000
    N9       N        0.22199    0.86691    0.74480    1.000
    N10      N        0.30766    0.83264    0.46140    1.000
    C25      C        0.23550    0.82068    0.55160    1.000
    C26      C        0.28960    0.91040    0.77290    1.000
    H29      H        0.29750    0.94820    0.89420    1.000
    C27      C        0.34190    0.89010    0.60050    1.000
    H30      H        0.39160    0.91100    0.57920    1.000
    C28      C        0.34590    0.78840    0.26230    1.000
    H31      H        0.36150    0.82350    0.13010    1.000
    H32      H        0.30990    0.75030    0.19430    1.000
    C29      C        0.41710    0.74750    0.36800    1.000
    H33      H        0.45250    0.78650    0.43420    1.000
    H34      H        0.40070    0.71440    0.50440    1.000
    C30      C        0.46000    0.69870    0.18260    1.000
    O9       O        0.52350    0.66960    0.25090    1.000
    O10      O        0.42990    0.69040    0.97130    1.000
    H35      H        0.45810    0.66280    0.88550    1.000
    N11      N        0.77801    0.13309    0.74480    1.000
    N12      N        0.69234    0.16736    0.46140    1.000
    C31      C        0.76450    0.17932    0.55160    1.000
    C32      C        0.71040    0.08960    0.77290    1.000
    H36      H        0.70250    0.05180    0.89420    1.000
    C33      C        0.65810    0.10990    0.60050    1.000
    H37      H        0.60840    0.08900    0.57920    1.000
    C34      C        0.65410    0.21160    0.26230    1.000
    H38      H        0.63850    0.17650    0.13010    1.000
    H39      H        0.69010    0.24970    0.19430    1.000
    C35      C        0.58290    0.25250    0.36800    1.000
    H40      H        0.54750    0.21350    0.43420    1.000
    H41      H        0.59930    0.28560    0.50440    1.000
    C36      C        0.54000    0.30130    0.18260    1.000
    O11      O        0.47650    0.33040    0.25090    1.000
    O12      O        0.57010    0.30960    0.97130    1.000
    H42      H        0.54190    0.33720    0.88550    1.000
    N13      N        0.36691    0.27801    0.74480    1.000
    N14      N        0.33264    0.19234    0.46140    1.000
    C37      C        0.32068    0.26450    0.55160    1.000
    C38      C        0.41040    0.21040    0.77290    1.000
    H43      H        0.44820    0.20250    0.89420    1.000
    C39      C        0.39010    0.15810    0.60050    1.000
    H44      H        0.41100    0.10840    0.57920    1.000
    C40      C        0.28840    0.15410    0.26230    1.000
    H45      H        0.32350    0.13850    0.13010    1.000
    H46      H        0.25030    0.19010    0.19430    1.000
    C41      C        0.24750    0.08290    0.36800    1.000
    H47      H        0.28650    0.04750    0.43420    1.000
    H48      H        0.21440    0.09930    0.50440    1.000
    C42      C        0.19870    0.04000    0.18260    1.000
    O13      O        0.16960    0.97650    0.25090    1.000
    O14      O        0.19040    0.07010    0.97130    1.000
    H49      H        0.16280    0.04190    0.88550    1.000
    N15      N        0.63309    0.72199    0.74480    1.000
    N16      N        0.66736    0.80766    0.46140    1.000
    C43      C        0.67932    0.73550    0.55160    1.000
    C44      C        0.58960    0.78960    0.77290    1.000
    H50      H        0.55180    0.79750    0.89420    1.000
    C45      C        0.60990    0.84190    0.60050    1.000
    H51      H        0.58900    0.89160    0.57920    1.000
    C46      C        0.71160    0.84590    0.26230    1.000
    H52      H        0.67650    0.86150    0.13010    1.000
    H53      H        0.74970    0.80990    0.19430    1.000
    C47      C        0.75250    0.91710    0.36800    1.000
    H54      H        0.71350    0.95250    0.43420    1.000
    H55      H        0.78560    0.90070    0.50440    1.000
    C48      C        0.80130    0.96000    0.18260    1.000
    O15      O        0.83040    0.02350    0.25090    1.000
    O16      O        0.80960    0.92990    0.97130    1.000
    H56      H        0.83720    0.95810    0.88550    1.000
    Cd1      Cd       0.38470    0.38470    0.00000    1.000
    Cd2      Cd       0.61530    0.61530    0.00000    1.000
    Cd3      Cd       0.11530    0.88470    0.00000    1.000
    Cd4      Cd       0.88470    0.11530    0.00000    1.000
