# CIF file generated by openbabel 3.1.0, see https://openbabel.org
data_I
_chemical_name_common 'image0'
_cell_length_a 12.143
_cell_length_b 24.875
_cell_length_c 19.669
_cell_angle_alpha 90
_cell_angle_beta 102.9
_cell_angle_gamma 90
_space_group_name_H-M_alt 'P 1'
_space_group_name_Hall 'P 1'
loop_
    _symmetry_equiv_pos_as_xyz
    x,y,z
loop_
    _atom_site_label
    _atom_site_type_symbol
    _atom_site_fract_x
    _atom_site_fract_y
    _atom_site_fract_z
    _atom_site_occupancy
    Nd1      Nd       0.92056    0.44954    0.05523    1.000
    O1       O        0.02500    0.39930    0.98380    1.000
    O2       O        0.74180    0.45320    0.10300    1.000
    O3       O        0.90280    0.46860    0.17570    1.000
    O4       O        0.76310    0.45430    0.94960    1.000
    O5       O        0.09170    0.50130    0.07030    1.000
    O6       O        0.86400    0.54350    0.05710    1.000
    C1       C        0.11230    0.41200    0.96450    1.000
    C2       C        0.79720    0.46730    0.16210    1.000
    C3       C        0.20630    0.37080    0.97870    1.000
    C4       C        0.73640    0.48180    0.21850    1.000
    C5       C        0.18270    0.31720    0.98640    1.000
    C6       C        0.32460    0.38980    0.99760    1.000
    C7       C        0.61930    0.48210    0.20520    1.000
    C8       C        0.79940    0.49310    0.28530    1.000
    C9       C        0.27300    0.28180    0.01150    1.000
    H1       H        0.10860    0.30470    0.97530    1.000
    C10      C        0.41580    0.35620    0.02370    1.000
    H2       H        0.33880    0.42610    0.99180    1.000
    H3       H        0.57790    0.47320    0.16090    1.000
    C11      C        0.56230    0.49550    0.25740    1.000
    H4       H        0.87790    0.49190    0.29480    1.000
    C12      C        0.74380    0.50610    0.33750    1.000
    C13      C        0.39110    0.30190    0.03110    1.000
    C14      C        0.53750    0.37380    0.03250    1.000
    C15      C        0.62650    0.50830    0.32330    1.000
    C16      C        0.80870    0.51860    0.41010    1.000
    H5       H        0.44940    0.27800    0.04860    1.000
    O7       O        0.53490    0.42060    0.03750    1.000
    O8       O        0.61050    0.34110    0.04630    1.000
    H6       H        0.59040    0.51840    0.35830    1.000
    Nd2      Nd       0.07944    0.44954    0.44477    1.000
    O9       O        0.97500    0.39930    0.51620    1.000
    O10      O        0.25820    0.45320    0.39700    1.000
    O11      O        0.09720    0.46860    0.32430    1.000
    O12      O        0.23690    0.45430    0.55040    1.000
    O13      O        0.90830    0.50130    0.42970    1.000
    O14      O        0.13600    0.54350    0.44290    1.000
    C17      C        0.88770    0.41200    0.53550    1.000
    C18      C        0.20280    0.46730    0.33790    1.000
    C19      C        0.79370    0.37080    0.52130    1.000
    C20      C        0.26360    0.48180    0.28150    1.000
    C21      C        0.81730    0.31720    0.51360    1.000
    C22      C        0.67540    0.38980    0.50240    1.000
    C23      C        0.38070    0.48210    0.29480    1.000
    C24      C        0.20060    0.49310    0.21470    1.000
    C25      C        0.72700    0.28180    0.48850    1.000
    H7       H        0.89140    0.30470    0.52470    1.000
    C26      C        0.58420    0.35620    0.47630    1.000
    H8       H        0.66120    0.42610    0.50820    1.000
    H9       H        0.42210    0.47320    0.33910    1.000
    C27      C        0.43770    0.49550    0.24260    1.000
    H10      H        0.12210    0.49190    0.20520    1.000
    C28      C        0.25620    0.50610    0.16250    1.000
    C29      C        0.60890    0.30190    0.46890    1.000
    C30      C        0.46250    0.37380    0.46750    1.000
    C31      C        0.37350    0.50830    0.17670    1.000
    C32      C        0.19130    0.51860    0.08990    1.000
    H11      H        0.55060    0.27800    0.45140    1.000
    O15      O        0.46510    0.42060    0.46250    1.000
    O16      O        0.38950    0.34110    0.45370    1.000
    H12      H        0.40960    0.51840    0.14170    1.000
    Nd3      Nd       0.07944    0.55046    0.94477    1.000
    O17      O        0.97500    0.60070    0.01620    1.000
    O18      O        0.25820    0.54680    0.89700    1.000
    O19      O        0.09720    0.53140    0.82430    1.000
    O20      O        0.23690    0.54570    0.05040    1.000
    O21      O        0.90830    0.49870    0.92970    1.000
    O22      O        0.13600    0.45650    0.94290    1.000
    C33      C        0.88770    0.58800    0.03550    1.000
    C34      C        0.20280    0.53270    0.83790    1.000
    C35      C        0.79370    0.62920    0.02130    1.000
    C36      C        0.26360    0.51820    0.78150    1.000
    C37      C        0.81730    0.68280    0.01360    1.000
    C38      C        0.67540    0.61020    0.00240    1.000
    C39      C        0.38070    0.51790    0.79480    1.000
    C40      C        0.20060    0.50690    0.71470    1.000
    C41      C        0.72700    0.71820    0.98850    1.000
    H13      H        0.89140    0.69530    0.02470    1.000
    C42      C        0.58420    0.64380    0.97630    1.000
    H14      H        0.66120    0.57390    0.00820    1.000
    H15      H        0.42210    0.52680    0.83910    1.000
    C43      C        0.43770    0.50450    0.74260    1.000
    H16      H        0.12210    0.50810    0.70520    1.000
    C44      C        0.25620    0.49390    0.66250    1.000
    C45      C        0.60890    0.69810    0.96890    1.000
    C46      C        0.46250    0.62620    0.96750    1.000
    C47      C        0.37350    0.49170    0.67670    1.000
    C48      C        0.19130    0.48140    0.58990    1.000
    H17      H        0.55060    0.72200    0.95140    1.000
    O23      O        0.46510    0.57940    0.96250    1.000
    O24      O        0.38950    0.65890    0.95370    1.000
    H18      H        0.40960    0.48160    0.64170    1.000
    Nd4      Nd       0.92056    0.55046    0.55523    1.000
    O25      O        0.02500    0.60070    0.48380    1.000
    O26      O        0.74180    0.54680    0.60300    1.000
    O27      O        0.90280    0.53140    0.67570    1.000
    O28      O        0.76310    0.54570    0.44960    1.000
    O29      O        0.09170    0.49870    0.57030    1.000
    O30      O        0.86400    0.45650    0.55710    1.000
    C49      C        0.11230    0.58800    0.46450    1.000
    C50      C        0.79720    0.53270    0.66210    1.000
    C51      C        0.20630    0.62920    0.47870    1.000
    C52      C        0.73640    0.51820    0.71850    1.000
    C53      C        0.18270    0.68280    0.48640    1.000
    C54      C        0.32460    0.61020    0.49760    1.000
    C55      C        0.61930    0.51790    0.70520    1.000
    C56      C        0.79940    0.50690    0.78530    1.000
    C57      C        0.27300    0.71820    0.51150    1.000
    H19      H        0.10860    0.69530    0.47530    1.000
    C58      C        0.41580    0.64380    0.52370    1.000
    H20      H        0.33880    0.57390    0.49180    1.000
    H21      H        0.57790    0.52680    0.66090    1.000
    C59      C        0.56230    0.50450    0.75740    1.000
    H22      H        0.87790    0.50810    0.79480    1.000
    C60      C        0.74380    0.49390    0.83750    1.000
    C61      C        0.39110    0.69810    0.53110    1.000
    C62      C        0.53750    0.62620    0.53250    1.000
    C63      C        0.62650    0.49170    0.82330    1.000
    C64      C        0.80870    0.48140    0.91010    1.000
    H23      H        0.44940    0.72200    0.54860    1.000
    O31      O        0.53490    0.57940    0.53750    1.000
    O32      O        0.61050    0.65890    0.54630    1.000
    H24      H        0.59040    0.48160    0.85830    1.000
    Nd5      Nd       0.42056    0.94954    0.05523    1.000
    O33      O        0.52500    0.89930    0.98380    1.000
    O34      O        0.24180    0.95320    0.10300    1.000
    O35      O        0.40280    0.96860    0.17570    1.000
    O36      O        0.26310    0.95430    0.94960    1.000
    O37      O        0.59170    0.00130    0.07030    1.000
    O38      O        0.36400    0.04350    0.05710    1.000
    C65      C        0.61230    0.91200    0.96450    1.000
    C66      C        0.29720    0.96730    0.16210    1.000
    C67      C        0.70630    0.87080    0.97870    1.000
    C68      C        0.23640    0.98180    0.21850    1.000
    C69      C        0.68270    0.81720    0.98640    1.000
    C70      C        0.82460    0.88980    0.99760    1.000
    C71      C        0.11930    0.98210    0.20520    1.000
    C72      C        0.29940    0.99310    0.28530    1.000
    C73      C        0.77300    0.78180    0.01150    1.000
    H25      H        0.60860    0.80470    0.97530    1.000
    C74      C        0.91580    0.85620    0.02370    1.000
    H26      H        0.83880    0.92610    0.99180    1.000
    H27      H        0.07790    0.97320    0.16090    1.000
    C75      C        0.06230    0.99550    0.25740    1.000
    H28      H        0.37790    0.99190    0.29480    1.000
    C76      C        0.24380    0.00610    0.33750    1.000
    C77      C        0.89110    0.80190    0.03110    1.000
    C78      C        0.03750    0.87380    0.03250    1.000
    C79      C        0.12650    0.00830    0.32330    1.000
    C80      C        0.30870    0.01860    0.41010    1.000
    H29      H        0.94940    0.77800    0.04860    1.000
    O39      O        0.03490    0.92060    0.03750    1.000
    O40      O        0.11050    0.84110    0.04630    1.000
    H30      H        0.09040    0.01840    0.35830    1.000
    Nd6      Nd       0.57944    0.94954    0.44477    1.000
    O41      O        0.47500    0.89930    0.51620    1.000
    O42      O        0.75820    0.95320    0.39700    1.000
    O43      O        0.59720    0.96860    0.32430    1.000
    O44      O        0.73690    0.95430    0.55040    1.000
    O45      O        0.40830    0.00130    0.42970    1.000
    O46      O        0.63600    0.04350    0.44290    1.000
    C81      C        0.38770    0.91200    0.53550    1.000
    C82      C        0.70280    0.96730    0.33790    1.000
    C83      C        0.29370    0.87080    0.52130    1.000
    C84      C        0.76360    0.98180    0.28150    1.000
    C85      C        0.31730    0.81720    0.51360    1.000
    C86      C        0.17540    0.88980    0.50240    1.000
    C87      C        0.88070    0.98210    0.29480    1.000
    C88      C        0.70060    0.99310    0.21470    1.000
    C89      C        0.22700    0.78180    0.48850    1.000
    H31      H        0.39140    0.80470    0.52470    1.000
    C90      C        0.08420    0.85620    0.47630    1.000
    H32      H        0.16120    0.92610    0.50820    1.000
    H33      H        0.92210    0.97320    0.33910    1.000
    C91      C        0.93770    0.99550    0.24260    1.000
    H34      H        0.62210    0.99190    0.20520    1.000
    C92      C        0.75620    0.00610    0.16250    1.000
    C93      C        0.10890    0.80190    0.46890    1.000
    C94      C        0.96250    0.87380    0.46750    1.000
    C95      C        0.87350    0.00830    0.17670    1.000
    C96      C        0.69130    0.01860    0.08990    1.000
    H35      H        0.05060    0.77800    0.45140    1.000
    O47      O        0.96510    0.92060    0.46250    1.000
    O48      O        0.88950    0.84110    0.45370    1.000
    H36      H        0.90960    0.01840    0.14170    1.000
    Nd7      Nd       0.57944    0.05046    0.94477    1.000
    O49      O        0.47500    0.10070    0.01620    1.000
    O50      O        0.75820    0.04680    0.89700    1.000
    O51      O        0.59720    0.03140    0.82430    1.000
    O52      O        0.73690    0.04570    0.05040    1.000
    O53      O        0.40830    0.99870    0.92970    1.000
    O54      O        0.63600    0.95650    0.94290    1.000
    C97      C        0.38770    0.08800    0.03550    1.000
    C98      C        0.70280    0.03270    0.83790    1.000
    C99      C        0.29370    0.12920    0.02130    1.000
    C100     C        0.76360    0.01820    0.78150    1.000
    C101     C        0.31730    0.18280    0.01360    1.000
    C102     C        0.17540    0.11020    0.00240    1.000
    C103     C        0.88070    0.01790    0.79480    1.000
    C104     C        0.70060    0.00690    0.71470    1.000
    C105     C        0.22700    0.21820    0.98850    1.000
    H37      H        0.39140    0.19530    0.02470    1.000
    C106     C        0.08420    0.14380    0.97630    1.000
    H38      H        0.16120    0.07390    0.00820    1.000
    H39      H        0.92210    0.02680    0.83910    1.000
    C107     C        0.93770    0.00450    0.74260    1.000
    H40      H        0.62210    0.00810    0.70520    1.000
    C108     C        0.75620    0.99390    0.66250    1.000
    C109     C        0.10890    0.19810    0.96890    1.000
    C110     C        0.96250    0.12620    0.96750    1.000
    C111     C        0.87350    0.99170    0.67670    1.000
    C112     C        0.69130    0.98140    0.58990    1.000
    H41      H        0.05060    0.22200    0.95140    1.000
    O55      O        0.96510    0.07940    0.96250    1.000
    O56      O        0.88950    0.15890    0.95370    1.000
    H42      H        0.90960    0.98160    0.64170    1.000
    Nd8      Nd       0.42056    0.05046    0.55523    1.000
    O57      O        0.52500    0.10070    0.48380    1.000
    O58      O        0.24180    0.04680    0.60300    1.000
    O59      O        0.40280    0.03140    0.67570    1.000
    O60      O        0.26310    0.04570    0.44960    1.000
    O61      O        0.59170    0.99870    0.57030    1.000
    O62      O        0.36400    0.95650    0.55710    1.000
    C113     C        0.61230    0.08800    0.46450    1.000
    C114     C        0.29720    0.03270    0.66210    1.000
    C115     C        0.70630    0.12920    0.47870    1.000
    C116     C        0.23640    0.01820    0.71850    1.000
    C117     C        0.68270    0.18280    0.48640    1.000
    C118     C        0.82460    0.11020    0.49760    1.000
    C119     C        0.11930    0.01790    0.70520    1.000
    C120     C        0.29940    0.00690    0.78530    1.000
    C121     C        0.77300    0.21820    0.51150    1.000
    H43      H        0.60860    0.19530    0.47530    1.000
    C122     C        0.91580    0.14380    0.52370    1.000
    H44      H        0.83880    0.07390    0.49180    1.000
    H45      H        0.07790    0.02680    0.66090    1.000
    C123     C        0.06230    0.00450    0.75740    1.000
    H46      H        0.37790    0.00810    0.79480    1.000
    C124     C        0.24380    0.99390    0.83750    1.000
    C125     C        0.89110    0.19810    0.53110    1.000
    C126     C        0.03750    0.12620    0.53250    1.000
    C127     C        0.12650    0.99170    0.82330    1.000
    C128     C        0.30870    0.98140    0.91010    1.000
    H47      H        0.94940    0.22200    0.54860    1.000
    O63      O        0.03490    0.07940    0.53750    1.000
    O64      O        0.11050    0.15890    0.54630    1.000
    H48      H        0.09040    0.98160    0.85830    1.000
