# CIF file generated by openbabel 3.1.0, see https://openbabel.org
data_I
_chemical_name_common 'image0'
_cell_length_a 9.209
_cell_length_b 14.712
_cell_length_c 12.5178
_cell_angle_alpha 90
_cell_angle_beta 109.01
_cell_angle_gamma 90
_space_group_name_H-M_alt 'P 1'
_space_group_name_Hall 'P 1'
loop_
    _symmetry_equiv_pos_as_xyz
    x,y,z
loop_
    _atom_site_label
    _atom_site_type_symbol
    _atom_site_fract_x
    _atom_site_fract_y
    _atom_site_fract_z
    _atom_site_occupancy
    Fe1      Fe       0.95290    0.04238    0.33270    1.000
    Fe2      Fe       0.83163    0.20033    0.10783    1.000
    Cl1      Cl       0.00501    0.93755    0.22280    1.000
    Cl2      Cl       0.98431    0.30327    0.23520    1.000
    O1       O        0.80500    0.11300    0.20980    1.000
    H1       H        0.70050    0.10020    0.20060    1.000
    O2       O        0.95230    0.13910    0.45330    1.000
    O3       O        0.15770    0.10890    0.36100    1.000
    O4       O        0.11330    0.24440    0.56840    1.000
    O5       O        0.32050    0.21300    0.47550    1.000
    O6       O        0.71290    0.89130    0.47410    1.000
    O7       O        0.01950    0.86070    0.58800    1.000
    O8       O        0.07500    0.96080    0.47760    1.000
    O9       O        0.76660    0.98400    0.35490    1.000
    C1       C        0.07570    0.18470    0.49130    1.000
    C2       C        0.19510    0.16800    0.43800    1.000
    C3       C        0.80410    0.93260    0.43900    1.000
    C4       C        0.98190    0.91750    0.50730    1.000
    Fe3      Fe       0.45290    0.54238    0.33270    1.000
    Fe4      Fe       0.33163    0.70033    0.10783    1.000
    Cl3      Cl       0.50501    0.43755    0.22280    1.000
    Cl4      Cl       0.48431    0.80327    0.23520    1.000
    O10      O        0.30500    0.61300    0.20980    1.000
    H2       H        0.20050    0.60020    0.20060    1.000
    O11      O        0.45230    0.63910    0.45330    1.000
    O12      O        0.65770    0.60890    0.36100    1.000
    O13      O        0.61330    0.74440    0.56840    1.000
    O14      O        0.82050    0.71300    0.47550    1.000
    O15      O        0.21290    0.39130    0.47410    1.000
    O16      O        0.51950    0.36070    0.58800    1.000
    O17      O        0.57500    0.46080    0.47760    1.000
    O18      O        0.26660    0.48400    0.35490    1.000
    C5       C        0.57570    0.68470    0.49130    1.000
    C6       C        0.69510    0.66800    0.43800    1.000
    C7       C        0.30410    0.43260    0.43900    1.000
    C8       C        0.48190    0.41750    0.50730    1.000
    Fe5      Fe       0.95290    0.95762    0.83270    1.000
    Fe6      Fe       0.83163    0.79967    0.60783    1.000
    Cl5      Cl       0.00501    0.06245    0.72280    1.000
    Cl6      Cl       0.98431    0.69673    0.73520    1.000
    O19      O        0.80500    0.88700    0.70980    1.000
    H3       H        0.70050    0.89980    0.70060    1.000
    O20      O        0.95230    0.86090    0.95330    1.000
    O21      O        0.15770    0.89110    0.86100    1.000
    O22      O        0.11330    0.75560    0.06840    1.000
    O23      O        0.32050    0.78700    0.97550    1.000
    O24      O        0.71290    0.10870    0.97410    1.000
    O25      O        0.01950    0.13930    0.08800    1.000
    O26      O        0.07500    0.03920    0.97760    1.000
    O27      O        0.76660    0.01600    0.85490    1.000
    C9       C        0.07570    0.81530    0.99130    1.000
    C10      C        0.19510    0.83200    0.93800    1.000
    C11      C        0.80410    0.06740    0.93900    1.000
    C12      C        0.98190    0.08250    0.00730    1.000
    Fe7      Fe       0.45290    0.45762    0.83270    1.000
    Fe8      Fe       0.33163    0.29967    0.60783    1.000
    Cl7      Cl       0.50501    0.56245    0.72280    1.000
    Cl8      Cl       0.48431    0.19673    0.73520    1.000
    O28      O        0.30500    0.38700    0.70980    1.000
    H4       H        0.20050    0.39980    0.70060    1.000
    O29      O        0.45230    0.36090    0.95330    1.000
    O30      O        0.65770    0.39110    0.86100    1.000
    O31      O        0.61330    0.25560    0.06840    1.000
    O32      O        0.82050    0.28700    0.97550    1.000
    O33      O        0.21290    0.60870    0.97410    1.000
    O34      O        0.51950    0.63930    0.08800    1.000
    O35      O        0.57500    0.53920    0.97760    1.000
    O36      O        0.26660    0.51600    0.85490    1.000
    C13      C        0.57570    0.31530    0.99130    1.000
    C14      C        0.69510    0.33200    0.93800    1.000
    C15      C        0.30410    0.56740    0.93900    1.000
    C16      C        0.48190    0.58250    0.00730    1.000
