# CIF file generated by openbabel 3.1.0, see https://openbabel.org
data_I
_chemical_name_common 'image0'
_cell_length_a 18.685
_cell_length_b 11.722
_cell_length_c 9.244
_cell_angle_alpha 90
_cell_angle_beta 91.771
_cell_angle_gamma 90
_space_group_name_H-M_alt 'P 1'
_space_group_name_Hall 'P 1'
loop_
    _symmetry_equiv_pos_as_xyz
    x,y,z
loop_
    _atom_site_label
    _atom_site_type_symbol
    _atom_site_fract_x
    _atom_site_fract_y
    _atom_site_fract_z
    _atom_site_occupancy
    Ba1      Ba       0.47790    0.69163    0.50773    1.000
    O1       O        0.32620    0.78370    0.51070    1.000
    O2       O        0.57370    0.66390    0.28140    1.000
    C1       C        0.63400    0.67060    0.34230    1.000
    C2       C        0.68510    0.49430    0.21710    1.000
    O3       O        0.64950    0.74370    0.44150    1.000
    N1       N        0.75820    0.62390    0.35530    1.000
    C3       C        0.69280    0.59200    0.30020    1.000
    N2       N        0.74430    0.42960    0.18470    1.000
    C4       C        0.80920    0.46570    0.23460    1.000
    H1       H        0.85040    0.42770    0.20760    1.000
    C5       C        0.61350    0.45010    0.16440    1.000
    O4       O        0.58760    0.48970    0.04290    1.000
    O5       O        0.58440    0.37560    0.23660    1.000
    H2       H        0.33420    0.76070    0.42010    1.000
    H3       H        0.35810    0.81490    0.55970    1.000
    C6       C        0.81440    0.56110    0.32780    1.000
    H4       H        0.85860    0.57980    0.37060    1.000
    Ba2      Ba       0.97790    0.19163    0.50773    1.000
    O6       O        0.82620    0.28370    0.51070    1.000
    O7       O        0.07370    0.16390    0.28140    1.000
    C7       C        0.13400    0.17060    0.34230    1.000
    C8       C        0.18510    0.99430    0.21710    1.000
    O8       O        0.14950    0.24370    0.44150    1.000
    N3       N        0.25820    0.12390    0.35530    1.000
    C9       C        0.19280    0.09200    0.30020    1.000
    N4       N        0.24430    0.92960    0.18470    1.000
    C10      C        0.30920    0.96570    0.23460    1.000
    H5       H        0.35040    0.92770    0.20760    1.000
    C11      C        0.11350    0.95010    0.16440    1.000
    O9       O        0.08760    0.98970    0.04290    1.000
    O10      O        0.08440    0.87560    0.23660    1.000
    H6       H        0.83420    0.26070    0.42010    1.000
    H7       H        0.85810    0.31490    0.55970    1.000
    C12      C        0.31440    0.06110    0.32780    1.000
    H8       H        0.35860    0.07980    0.37060    1.000
    Ba3      Ba       0.52210    0.69163    0.99227    1.000
    O11      O        0.67380    0.78370    0.98930    1.000
    O12      O        0.42630    0.66390    0.21860    1.000
    C13      C        0.36600    0.67060    0.15770    1.000
    C14      C        0.31490    0.49430    0.28290    1.000
    O13      O        0.35050    0.74370    0.05850    1.000
    N5       N        0.24180    0.62390    0.14470    1.000
    C15      C        0.30720    0.59200    0.19980    1.000
    N6       N        0.25570    0.42960    0.31530    1.000
    C16      C        0.19080    0.46570    0.26540    1.000
    H9       H        0.14960    0.42770    0.29240    1.000
    C17      C        0.38650    0.45010    0.33560    1.000
    O14      O        0.41240    0.48970    0.45710    1.000
    O15      O        0.41560    0.37560    0.26340    1.000
    H10      H        0.66580    0.76070    0.07990    1.000
    H11      H        0.64190    0.81490    0.94030    1.000
    C18      C        0.18560    0.56110    0.17220    1.000
    H12      H        0.14140    0.57980    0.12940    1.000
    Ba4      Ba       0.02210    0.19163    0.99227    1.000
    O16      O        0.17380    0.28370    0.98930    1.000
    O17      O        0.92630    0.16390    0.21860    1.000
    C19      C        0.86600    0.17060    0.15770    1.000
    C20      C        0.81490    0.99430    0.28290    1.000
    O18      O        0.85050    0.24370    0.05850    1.000
    N7       N        0.74180    0.12390    0.14470    1.000
    C21      C        0.80720    0.09200    0.19980    1.000
    N8       N        0.75570    0.92960    0.31530    1.000
    C22      C        0.69080    0.96570    0.26540    1.000
    H13      H        0.64960    0.92770    0.29240    1.000
    C23      C        0.88650    0.95010    0.33560    1.000
    O19      O        0.91240    0.98970    0.45710    1.000
    O20      O        0.91560    0.87560    0.26340    1.000
    H14      H        0.16580    0.26070    0.07990    1.000
    H15      H        0.14190    0.31490    0.94030    1.000
    C24      C        0.68560    0.06110    0.17220    1.000
    H16      H        0.64140    0.07980    0.12940    1.000
    Ba5      Ba       0.52210    0.30837    0.49227    1.000
    O21      O        0.67380    0.21630    0.48930    1.000
    O22      O        0.42630    0.33610    0.71860    1.000
    C25      C        0.36600    0.32940    0.65770    1.000
    C26      C        0.31490    0.50570    0.78290    1.000
    O23      O        0.35050    0.25630    0.55850    1.000
    N9       N        0.24180    0.37610    0.64470    1.000
    C27      C        0.30720    0.40800    0.69980    1.000
    N10      N        0.25570    0.57040    0.81530    1.000
    C28      C        0.19080    0.53430    0.76540    1.000
    H17      H        0.14960    0.57230    0.79240    1.000
    C29      C        0.38650    0.54990    0.83560    1.000
    O24      O        0.41240    0.51030    0.95710    1.000
    O25      O        0.41560    0.62440    0.76340    1.000
    H18      H        0.66580    0.23930    0.57990    1.000
    H19      H        0.64190    0.18510    0.44030    1.000
    C30      C        0.18560    0.43890    0.67220    1.000
    H20      H        0.14140    0.42020    0.62940    1.000
    Ba6      Ba       0.02210    0.80837    0.49227    1.000
    O26      O        0.17380    0.71630    0.48930    1.000
    O27      O        0.92630    0.83610    0.71860    1.000
    C31      C        0.86600    0.82940    0.65770    1.000
    C32      C        0.81490    0.00570    0.78290    1.000
    O28      O        0.85050    0.75630    0.55850    1.000
    N11      N        0.74180    0.87610    0.64470    1.000
    C33      C        0.80720    0.90800    0.69980    1.000
    N12      N        0.75570    0.07040    0.81530    1.000
    C34      C        0.69080    0.03430    0.76540    1.000
    H21      H        0.64960    0.07230    0.79240    1.000
    C35      C        0.88650    0.04990    0.83560    1.000
    O29      O        0.91240    0.01030    0.95710    1.000
    O30      O        0.91560    0.12440    0.76340    1.000
    H22      H        0.16580    0.73930    0.57990    1.000
    H23      H        0.14190    0.68510    0.44030    1.000
    C36      C        0.68560    0.93890    0.67220    1.000
    H24      H        0.64140    0.92020    0.62940    1.000
    Ba7      Ba       0.47790    0.30837    0.00773    1.000
    O31      O        0.32620    0.21630    0.01070    1.000
    O32      O        0.57370    0.33610    0.78140    1.000
    C37      C        0.63400    0.32940    0.84230    1.000
    C38      C        0.68510    0.50570    0.71710    1.000
    O33      O        0.64950    0.25630    0.94150    1.000
    N13      N        0.75820    0.37610    0.85530    1.000
    C39      C        0.69280    0.40800    0.80020    1.000
    N14      N        0.74430    0.57040    0.68470    1.000
    C40      C        0.80920    0.53430    0.73460    1.000
    H25      H        0.85040    0.57230    0.70760    1.000
    C41      C        0.61350    0.54990    0.66440    1.000
    O34      O        0.58760    0.51030    0.54290    1.000
    O35      O        0.58440    0.62440    0.73660    1.000
    H26      H        0.33420    0.23930    0.92010    1.000
    H27      H        0.35810    0.18510    0.05970    1.000
    C42      C        0.81440    0.43890    0.82780    1.000
    H28      H        0.85860    0.42020    0.87060    1.000
    Ba8      Ba       0.97790    0.80837    0.00773    1.000
    O36      O        0.82620    0.71630    0.01070    1.000
    O37      O        0.07370    0.83610    0.78140    1.000
    C43      C        0.13400    0.82940    0.84230    1.000
    C44      C        0.18510    0.00570    0.71710    1.000
    O38      O        0.14950    0.75630    0.94150    1.000
    N15      N        0.25820    0.87610    0.85530    1.000
    C45      C        0.19280    0.90800    0.80020    1.000
    N16      N        0.24430    0.07040    0.68470    1.000
    C46      C        0.30920    0.03430    0.73460    1.000
    H29      H        0.35040    0.07230    0.70760    1.000
    C47      C        0.11350    0.04990    0.66440    1.000
    O39      O        0.08760    0.01030    0.54290    1.000
    O40      O        0.08440    0.12440    0.73660    1.000
    H30      H        0.83420    0.73930    0.92010    1.000
    H31      H        0.85810    0.68510    0.05970    1.000
    C48      C        0.31440    0.93890    0.82780    1.000
    H32      H        0.35860    0.92020    0.87060    1.000
    Cu1      Cu       0.75000    0.75000    0.50000    1.000
    Cu2      Cu       0.25000    0.75000    0.00000    1.000
    Cu3      Cu       0.25000    0.25000    0.50000    1.000
    Cu4      Cu       0.75000    0.25000    0.00000    1.000
