# CIF file generated by openbabel 3.1.0, see https://openbabel.org
data_I
_chemical_name_common 'image0'
_cell_length_a 10.39
_cell_length_b 12.295
_cell_length_c 12.497
_cell_angle_alpha 79.31
_cell_angle_beta 68.2
_cell_angle_gamma 69.58
_space_group_name_H-M_alt 'P 1'
_space_group_name_Hall 'P 1'
loop_
    _symmetry_equiv_pos_as_xyz
    x,y,z
loop_
    _atom_site_label
    _atom_site_type_symbol
    _atom_site_fract_x
    _atom_site_fract_y
    _atom_site_fract_z
    _atom_site_occupancy
    Cd1      Cd       0.40038    0.69632    0.02158    1.000
    Cd2      Cd       0.04869    0.52707    0.81438    1.000
    S1       S        0.73520    0.51493    0.00492    1.000
    O1       O        0.38350    0.87660    0.06450    1.000
    O2       O        0.19070    0.86790    0.04070    1.000
    O3       O        0.82660    0.50430    0.06900    1.000
    O4       O        0.66870    0.42210    0.04230    1.000
    O5       O        0.82110    0.50850    0.88450    1.000
    O6       O        0.62970    0.62890    0.02680    1.000
    O7       O        0.02950    0.57850    0.63020    1.000
    O8       O        0.24700    0.54150    0.63810    1.000
    N1       N        0.31730    0.64150    0.21670    1.000
    N2       N        0.04920    0.28030    0.14260    1.000
    C1       C        0.15950    0.56890    0.58410    1.000
    C2       C        0.21680    0.59380    0.45380    1.000
    C3       C        0.12210    0.62510    0.39000    1.000
    H1       H        0.02460    0.62930    0.42530    1.000
    C4       C        0.17880    0.64950    0.27300    1.000
    H2       H        0.11550    0.67320    0.23070    1.000
    C5       C        0.40740    0.61060    0.27960    1.000
    H3       H        0.50500    0.60520    0.24180    1.000
    C6       C        0.36110    0.58670    0.39680    1.000
    H4       H        0.42610    0.56600    0.43740    1.000
    C7       C        0.25850    0.92200    0.06320    1.000
    C8       C        0.18340    0.04740    0.08960    1.000
    C9       C        0.04570    0.10750    0.08250    1.000
    H5       H        0.99560    0.07040    0.06110    1.000
    C10      C        0.25030    0.10860    0.12360    1.000
    H6       H        0.34260    0.07180    0.12930    1.000
    C11      C        0.98430    0.22310    0.10760    1.000
    H7       H        0.89370    0.26330    0.10000    1.000
    C12      C        0.18070    0.22330    0.14880    1.000
    H8       H        0.22800    0.26240    0.17120    1.000
    Cd3      Cd       0.59962    0.30368    0.97842    1.000
    Cd4      Cd       0.95131    0.47293    0.18562    1.000
    S2       S        0.26480    0.48507    0.99508    1.000
    O9       O        0.61650    0.12340    0.93550    1.000
    O10      O        0.80930    0.13210    0.95930    1.000
    O11      O        0.17340    0.49570    0.93100    1.000
    O12      O        0.33130    0.57790    0.95770    1.000
    O13      O        0.17890    0.49150    0.11550    1.000
    O14      O        0.37030    0.37110    0.97320    1.000
    O15      O        0.97050    0.42150    0.36980    1.000
    O16      O        0.75300    0.45850    0.36190    1.000
    N3       N        0.68270    0.35850    0.78330    1.000
    N4       N        0.95080    0.71970    0.85740    1.000
    C13      C        0.84050    0.43110    0.41590    1.000
    C14      C        0.78320    0.40620    0.54620    1.000
    C15      C        0.87790    0.37490    0.61000    1.000
    H9       H        0.97540    0.37070    0.57470    1.000
    C16      C        0.82120    0.35050    0.72700    1.000
    H10      H        0.88450    0.32680    0.76930    1.000
    C17      C        0.59260    0.38940    0.72040    1.000
    H11      H        0.49500    0.39480    0.75820    1.000
    C18      C        0.63890    0.41330    0.60320    1.000
    H12      H        0.57390    0.43400    0.56260    1.000
    C19      C        0.74150    0.07800    0.93680    1.000
    C20      C        0.81660    0.95260    0.91040    1.000
    C21      C        0.95430    0.89250    0.91750    1.000
    H13      H        0.00440    0.92960    0.93890    1.000
    C22      C        0.74970    0.89140    0.87640    1.000
    H14      H        0.65740    0.92820    0.87070    1.000
    C23      C        0.01570    0.77690    0.89240    1.000
    H15      H        0.10630    0.73670    0.90000    1.000
    C24      C        0.81930    0.77670    0.85120    1.000
    H16      H        0.77200    0.73760    0.82880    1.000
