# CIF file generated by openbabel 3.1.0, see https://openbabel.org
data_I
_chemical_name_common 'NADZEZ_clean'
_cell_length_a 13.0245
_cell_length_b 13.0245
_cell_length_c 16.7901
_cell_angle_alpha 111.502
_cell_angle_beta 111.502
_cell_angle_gamma 93.1514
_space_group_name_H-M_alt 'P 1'
_space_group_name_Hall 'P 1'
loop_
    _symmetry_equiv_pos_as_xyz
    x,y,z
loop_
    _atom_site_label
    _atom_site_type_symbol
    _atom_site_fract_x
    _atom_site_fract_y
    _atom_site_fract_z
    _atom_site_occupancy
    Y1       Y        0.62553    0.63341    0.77170    1.000
    Y2       Y        0.14617    0.13829    0.77170    1.000
    Y3       Y        0.88341    0.37553    0.27170    1.000
    Y4       Y        0.38829    0.89617    0.27170    1.000
    Y5       Y        0.99196    0.99196    0.98392    1.000
    Y6       Y        0.24196    0.74196    0.48392    1.000
    Y7       Y        0.75383    0.25383    0.50766    1.000
    Y8       Y        0.50383    0.50383    0.00766    1.000
    H1       H        0.89670    0.73230    0.76340    1.000
    H2       H        0.06980    0.81300    0.63160    1.000
    H3       H        0.84200    0.52000    0.49900    1.000
    H4       H        0.46810    0.16370    0.28200    1.000
    H5       H        0.56110    0.32070    0.14460    1.000
    H6       H        0.25610    0.11170    0.02100    1.000
    H7       H        0.86670    0.03110    0.76340    1.000
    H8       H        0.56180    0.81860    0.63160    1.000
    H9       H        0.65700    0.97900    0.49900    1.000
    H10      H        0.81390    0.11830    0.28200    1.000
    H11      H        0.58350    0.82390    0.14460    1.000
    H12      H        0.76490    0.90930    0.02100    1.000
    H13      H        0.98230    0.64670    0.26340    1.000
    H14      H        0.06300    0.81980    0.13160    1.000
    H15      H        0.77000    0.59200    0.99900    1.000
    H16      H        0.41370    0.21810    0.78200    1.000
    H17      H        0.57070    0.31110    0.64460    1.000
    H18      H        0.36170    0.00610    0.52100    1.000
    H19      H        0.28110    0.61670    0.26340    1.000
    H20      H        0.06860    0.31180    0.13160    1.000
    H21      H        0.22900    0.40700    0.99900    1.000
    H22      H        0.36830    0.56390    0.78200    1.000
    H23      H        0.07390    0.33350    0.64460    1.000
    H24      H        0.15930    0.51490    0.52100    1.000
    C1       C        0.85330    0.61210    0.63120    1.000
    C2       C        0.91130    0.71490    0.71020    1.000
    C3       C        0.99140    0.79160    0.70960    1.000
    C4       C        0.01530    0.76350    0.63140    1.000
    C5       C        0.95970    0.66350    0.55360    1.000
    C6       C        0.87910    0.58750    0.55220    1.000
    C7       C        0.77120    0.53400    0.63280    1.000
    C8       C        0.04850    0.90230    0.79300    1.000
    C9       C        0.98530    0.63390    0.46720    1.000
    C10      C        0.34950    0.12930    0.15340    1.000
    C11      C        0.45300    0.17780    0.22880    1.000
    C12      C        0.53630    0.24850    0.22640    1.000
    C13      C        0.50860    0.27080    0.14600    1.000
    C14      C        0.40730    0.22150    0.07020    1.000
    C15      C        0.32520    0.14740    0.07280    1.000
    C16      C        0.26060    0.05180    0.15680    1.000
    C17      C        0.65170    0.29530    0.30540    1.000
    C18      C        0.38100    0.24680    0.98620    1.000
    C19      C        0.77790    0.01910    0.63120    1.000
    C20      C        0.79890    0.99530    0.71020    1.000
    C21      C        0.71820    0.91800    0.70960    1.000
    C22      C        0.61610    0.86790    0.63140    1.000
    C23      C        0.59390    0.89010    0.55360    1.000
    C24      C        0.67310    0.96470    0.55220    1.000
    C25      C        0.86160    0.09880    0.63280    1.000
    C26      C        0.74450    0.89070    0.79300    1.000
    C27      C        0.48190    0.83330    0.46720    1.000
    C28      C        0.80390    0.02410    0.15340    1.000
    C29      C        0.77580    0.05100    0.22880    1.000
    C30      C        0.69010    0.97790    0.22640    1.000
    C31      C        0.63740    0.87520    0.14600    1.000
    C32      C        0.66290    0.84870    0.07020    1.000
    C33      C        0.74760    0.92540    0.07280    1.000
    C34      C        0.89620    0.10500    0.15680    1.000
    C35      C        0.65370    0.01010    0.30540    1.000
    C36      C        0.60520    0.73940    0.98620    1.000
    C37      C        0.86210    0.60330    0.13120    1.000
    C38      C        0.96490    0.66130    0.21020    1.000
    C39      C        0.04160    0.74140    0.20960    1.000
    C40      C        0.01350    0.76530    0.13140    1.000
    C41      C        0.91350    0.70970    0.05360    1.000
    C42      C        0.83750    0.62910    0.05220    1.000
    C43      C        0.78400    0.52120    0.13280    1.000
    C44      C        0.15230    0.79850    0.29300    1.000
    C45      C        0.88390    0.73530    0.96720    1.000
    C46      C        0.37930    0.09950    0.65340    1.000
    C47      C        0.42780    0.20300    0.72880    1.000
    C48      C        0.49850    0.28630    0.72640    1.000
    C49      C        0.52080    0.25860    0.64600    1.000
    C50      C        0.47150    0.15730    0.57020    1.000
    C51      C        0.39740    0.07520    0.57280    1.000
    C52      C        0.30180    0.01060    0.65680    1.000
    C53      C        0.54530    0.40170    0.80540    1.000
    C54      C        0.49680    0.13100    0.48620    1.000
    C55      C        0.26910    0.52790    0.13120    1.000
    C56      C        0.24530    0.54890    0.21020    1.000
    C57      C        0.16800    0.46820    0.20960    1.000
    C58      C        0.11790    0.36610    0.13140    1.000
    C59      C        0.14010    0.34390    0.05360    1.000
    C60      C        0.21470    0.42310    0.05220    1.000
    C61      C        0.34880    0.61160    0.13280    1.000
    C62      C        0.14070    0.49450    0.29300    1.000
    C63      C        0.08330    0.23190    0.96720    1.000
    C64      C        0.27410    0.55390    0.65340    1.000
    C65      C        0.30100    0.52580    0.72880    1.000
    C66      C        0.22790    0.44010    0.72640    1.000
    C67      C        0.12520    0.38740    0.64600    1.000
    C68      C        0.09870    0.41290    0.57020    1.000
    C69      C        0.17540    0.49760    0.57280    1.000
    C70      C        0.35500    0.64620    0.65680    1.000
    C71      C        0.26010    0.40370    0.80540    1.000
    C72      C        0.98940    0.35520    0.48620    1.000
    O1       O        0.72850    0.43490    0.56540    1.000
    O2       O        0.73860    0.56900    0.69900    1.000
    O3       O        0.04790    0.91430    0.86880    1.000
    O4       O        0.09730    0.97690    0.78060    1.000
    O5       O        0.07080    0.69340    0.47520    1.000
    O6       O        0.92020    0.55140    0.39200    1.000
    O7       O        0.16270    0.02270    0.09440    1.000
    O8       O        0.29310    0.02550    0.22540    1.000
    O9       O        0.72650    0.33690    0.29160    1.000
    O10      O        0.66350    0.29010    0.37980    1.000
    O11      O        0.30470    0.17850    0.90840    1.000
    O12      O        0.44220    0.33600    0.99780    1.000
    O13      O        0.83690    0.13050    0.56540    1.000
    O14      O        0.96040    0.13000    0.69900    1.000
    O15      O        0.82090    0.95450    0.86880    1.000
    O16      O        0.68330    0.80370    0.78060    1.000
    O17      O        0.40440    0.78180    0.47520    1.000
    O18      O        0.47180    0.84060    0.39200    1.000
    O19      O        0.93170    0.07170    0.09440    1.000
    O20      O        0.93230    0.19990    0.22540    1.000
    O21      O        0.56510    0.95470    0.29160    1.000
    O22      O        0.71630    0.08970    0.37980    1.000
    O23      O        0.60370    0.72990    0.90840    1.000
    O24      O        0.55560    0.66180    0.99780    1.000
    O25      O        0.68490    0.47850    0.06540    1.000
    O26      O        0.81900    0.48860    0.19900    1.000
    O27      O        0.16430    0.79790    0.36880    1.000
    O28      O        0.22690    0.84730    0.28060    1.000
    O29      O        0.94340    0.82080    0.97520    1.000
    O30      O        0.80140    0.67020    0.89200    1.000
    O31      O        0.27270    0.91270    0.59440    1.000
    O32      O        0.27550    0.04310    0.72540    1.000
    O33      O        0.58690    0.47650    0.79160    1.000
    O34      O        0.54010    0.41350    0.87980    1.000
    O35      O        0.42850    0.05470    0.40840    1.000
    O36      O        0.58600    0.19220    0.49780    1.000
    O37      O        0.38050    0.58690    0.06540    1.000
    O38      O        0.38000    0.71040    0.19900    1.000
    O39      O        0.20450    0.57090    0.36880    1.000
    O40      O        0.05370    0.43330    0.28060    1.000
    O41      O        0.03180    0.15440    0.97520    1.000
    O42      O        0.09060    0.22180    0.89200    1.000
    O43      O        0.32170    0.68170    0.59440    1.000
    O44      O        0.44990    0.68230    0.72540    1.000
    O45      O        0.20470    0.31510    0.79160    1.000
    O46      O        0.33970    0.46630    0.87980    1.000
    O47      O        0.97990    0.35370    0.40840    1.000
    O48      O        0.91180    0.30560    0.49780    1.000
