# CIF file generated by openbabel 3.1.0, see https://openbabel.org
data_I
_chemical_name_common 'FIHHUB_clean'
_cell_length_a 19.8941
_cell_length_b 25.4125
_cell_length_c 25.4125
_cell_angle_alpha 120
_cell_angle_beta 90
_cell_angle_gamma 90
_space_group_name_H-M_alt 'P 1'
_space_group_name_Hall 'P 1'
loop_
    _symmetry_equiv_pos_as_xyz
    x,y,z
loop_
    _atom_site_label
    _atom_site_type_symbol
    _atom_site_fract_x
    _atom_site_fract_y
    _atom_site_fract_z
    _atom_site_occupancy
    B1       B        0.00000    0.54120    0.09520    1.000
    C2       C        0.00000    0.41800    0.07600    1.000
    C3       C        0.00000    0.35400    0.07000    1.000
    F4       F        0.00000    0.59470    0.15090    1.000
    F5       F        0.00000    0.58090    0.06260    1.000
    B6       B        0.00000    0.55400    0.45880    1.000
    C7       C        0.00000    0.65800    0.58200    1.000
    C8       C        0.00000    0.71600    0.64600    1.000
    F9       F        0.00000    0.55620    0.40530    1.000
    F10      F        0.00000    0.48170    0.41910    1.000
    B11      B        0.00000    0.90480    0.44600    1.000
    C12      C        0.00000    0.92400    0.34200    1.000
    C13      C        0.00000    0.93000    0.28400    1.000
    F14      F        0.00000    0.84910    0.44380    1.000
    F15      F        0.00000    0.93740    0.51830    1.000
    H16      H        0.00000    0.44398    0.12780    1.000
    H17      H        0.00000    0.68382    0.55602    1.000
    H18      H        0.00000    0.87220    0.31618    1.000
    H19      H        0.61919    0.57046    0.12624    1.000
    H20      H        0.74450    0.57453    0.13664    1.000
    H21      H        0.75072    0.38416    0.00423    1.000
    H22      H        0.83503    0.57565    0.04838    1.000
    H23      H        0.89845    0.61801    0.10900    1.000
    H24      H        0.81067    0.61052    0.12978    1.000
    H25      H        0.87550    0.33428    0.00600    1.000
    H26      H        0.79884    0.36590    0.05367    1.000
    H27      H        0.88041    0.36613    0.08968    1.000
    H28      H        0.05331    0.34174    0.07645    1.000
    C29      C        0.65040    0.52770    0.09820    1.000
    C30      C        0.65240    0.42900    0.02860    1.000
    C31      C        0.71870    0.53010    0.10330    1.000
    C32      C        0.72190    0.42840    0.03230    1.000
    C33      C        0.75570    0.48130    0.06990    1.000
    C34      C        0.83100    0.48160    0.07130    1.000
    C35      C        0.87220    0.52720    0.09460    1.000
    C36      C        0.87190    0.43420    0.06050    1.000
    C37      C        0.85280    0.58680    0.09550    1.000
    C38      C        0.93840    0.44900    0.07000    1.000
    C39      C        0.85560    0.37100    0.05190    1.000
    N40      N        0.61640    0.47856    0.06246    1.000
    N41      N        0.93840    0.50740    0.08940    1.000
    H42      H        0.61919    0.55578    0.42954    1.000
    H43      H        0.74450    0.56211    0.42547    1.000
    H44      H        0.75072    0.62007    0.61584    1.000
    H45      H        0.88415    0.46905    0.40857    1.000
    H46      H        0.86281    0.51534    0.37273    1.000
    H47      H        0.79719    0.49859    0.41452    1.000
    H48      H        0.81816    0.66631    0.65323    1.000
    H49      H        0.83288    0.71907    0.62352    1.000
    H50      H        0.90372    0.69766    0.65694    1.000
    H51      H        0.97299    0.70599    0.67959    1.000
    C52      C        0.65040    0.57050    0.47230    1.000
    C53      C        0.65240    0.59960    0.57100    1.000
    C54      C        0.71870    0.57320    0.46990    1.000
    C55      C        0.72190    0.60390    0.57160    1.000
    C56      C        0.75570    0.58860    0.51870    1.000
    C57      C        0.83100    0.58970    0.51840    1.000
    C58      C        0.87220    0.56740    0.47280    1.000
    C59      C        0.87190    0.62630    0.56580    1.000
    C60      C        0.85280    0.50870    0.41320    1.000
    C61      C        0.93840    0.62100    0.55100    1.000
    C62      C        0.85560    0.68090    0.62900    1.000
    N63      N        0.61640    0.58390    0.52144    1.000
    N64      N        0.93840    0.58200    0.49260    1.000
    H65      H        0.61919    0.87376    0.44422    1.000
    H66      H        0.74450    0.86336    0.43789    1.000
    H67      H        0.75072    0.99577    0.37993    1.000
    H68      H        0.82512    0.86045    0.47865    1.000
    H69      H        0.81878    0.94485    0.52054    1.000
    H70      H        0.90025    0.90754    0.51783    1.000
    H71      H        0.87399    0.90689    0.27544    1.000
    H72      H        0.88181    0.99069    0.32520    1.000
    H73      H        0.79896    0.95308    0.31632    1.000
    H74      H        0.02701    0.88932    0.24565    1.000
    C75      C        0.65040    0.90180    0.42950    1.000
    C76      C        0.65240    0.97140    0.40040    1.000
    C77      C        0.71870    0.89670    0.42680    1.000
    C78      C        0.72190    0.96770    0.39610    1.000
    C79      C        0.75570    0.93010    0.41140    1.000
    C80      C        0.83100    0.92870    0.41030    1.000
    C81      C        0.87220    0.90540    0.43260    1.000
    C82      C        0.87190    0.93950    0.37370    1.000
    C83      C        0.85280    0.90450    0.49130    1.000
    C84      C        0.93840    0.93000    0.37900    1.000
    C85      C        0.85560    0.94810    0.31910    1.000
    N86      N        0.61640    0.93754    0.41610    1.000
    N87      N        0.93840    0.91060    0.41800    1.000
    H88      H        0.62429    0.61416    0.00443    1.000
    H89      H        0.62429    0.39027    0.38584    1.000
    H90      H        0.62429    0.99557    0.60973    1.000
    H91      H        0.37571    0.61416    0.00443    1.000
    H92      H        0.37571    0.39027    0.38584    1.000
    H93      H        0.37571    0.99557    0.60973    1.000
    H94      H        0.38081    0.57046    0.12624    1.000
    H95      H        0.25550    0.57453    0.13664    1.000
    H96      H        0.24928    0.38416    0.00423    1.000
    H97      H        0.10155    0.61801    0.10900    1.000
    H98      H        0.16497    0.57565    0.04838    1.000
    H99      H        0.18933    0.61052    0.12978    1.000
    H100     H        0.20116    0.36590    0.05367    1.000
    H101     H        0.12450    0.33428    0.00600    1.000
    H102     H        0.11959    0.36613    0.08968    1.000
    H103     H        0.98096    0.31896    0.02299    1.000
    C104     C        0.34960    0.52770    0.09820    1.000
    C105     C        0.34760    0.42900    0.02860    1.000
    C106     C        0.28130    0.53010    0.10330    1.000
    C107     C        0.27810    0.42840    0.03230    1.000
    C108     C        0.24430    0.48130    0.06990    1.000
    C109     C        0.16900    0.48160    0.07130    1.000
    C110     C        0.12780    0.52720    0.09460    1.000
    C111     C        0.12810    0.43420    0.06050    1.000
    C112     C        0.14720    0.58680    0.09550    1.000
    C113     C        0.06160    0.44900    0.07000    1.000
    C114     C        0.14440    0.37100    0.05190    1.000
    N115     N        0.38360    0.47856    0.06246    1.000
    N116     N        0.06160    0.50740    0.08940    1.000
    H117     H        0.38081    0.55578    0.42954    1.000
    H118     H        0.25550    0.56211    0.42547    1.000
    H119     H        0.24928    0.62007    0.61584    1.000
    H120     H        0.13719    0.51534    0.37273    1.000
    H121     H        0.11585    0.46905    0.40857    1.000
    H122     H        0.20281    0.49859    0.41452    1.000
    H123     H        0.16712    0.71907    0.62352    1.000
    H124     H        0.18184    0.66631    0.65323    1.000
    H125     H        0.09628    0.69766    0.65694    1.000
    H126     H        0.97299    0.75435    0.64367    1.000
    C127     C        0.34960    0.57050    0.47230    1.000
    C128     C        0.34760    0.59960    0.57100    1.000
    C129     C        0.28130    0.57320    0.46990    1.000
    C130     C        0.27810    0.60390    0.57160    1.000
    C131     C        0.24430    0.58860    0.51870    1.000
    C132     C        0.16900    0.58970    0.51840    1.000
    C133     C        0.12780    0.56740    0.47280    1.000
    C134     C        0.12810    0.62630    0.56580    1.000
    C135     C        0.14720    0.50870    0.41320    1.000
    C136     C        0.06160    0.62100    0.55100    1.000
    C137     C        0.14440    0.68090    0.62900    1.000
    N138     N        0.38360    0.58390    0.52144    1.000
    N139     N        0.06160    0.58200    0.49260    1.000
    H140     H        0.38081    0.87376    0.44422    1.000
    H141     H        0.25550    0.86336    0.43789    1.000
    H142     H        0.24928    0.99577    0.37993    1.000
    H143     H        0.18122    0.94485    0.52054    1.000
    H144     H        0.17488    0.86045    0.47865    1.000
    H145     H        0.09975    0.90754    0.51783    1.000
    H146     H        0.11819    0.99069    0.32520    1.000
    H147     H        0.12601    0.90689    0.27544    1.000
    H148     H        0.20104    0.95308    0.31632    1.000
    H149     H        0.02701    0.97361    0.29401    1.000
    C150     C        0.34960    0.90180    0.42950    1.000
    C151     C        0.34760    0.97140    0.40040    1.000
    C152     C        0.28130    0.89670    0.42680    1.000
    C153     C        0.27810    0.96770    0.39610    1.000
    C154     C        0.24430    0.93010    0.41140    1.000
    C155     C        0.16900    0.92870    0.41030    1.000
    C156     C        0.12780    0.90540    0.43260    1.000
    C157     C        0.12810    0.93950    0.37370    1.000
    C158     C        0.14720    0.90450    0.49130    1.000
    C159     C        0.06160    0.93000    0.37900    1.000
    C160     C        0.14440    0.94810    0.31910    1.000
    N161     N        0.38360    0.93754    0.41610    1.000
    N162     N        0.06160    0.91060    0.41800    1.000
    Cd163    Cd       0.50000    0.47355    0.06174    1.000
    H164     H        0.50000    0.56847    0.28929    1.000
    H165     H        0.50000    0.37036    0.17491    1.000
    H166     H        0.50000    0.55713    0.38306    1.000
    H167     H        0.50000    0.35979    0.26940    1.000
    C168     C        0.50000    0.47300    0.16920    1.000
    C169     C        0.50000    0.47040    0.22680    1.000
    C170     C        0.50000    0.52120    0.28400    1.000
    C171     C        0.50000    0.41300    0.22170    1.000
    C172     C        0.50000    0.51500    0.33590    1.000
    C173     C        0.50000    0.40690    0.27430    1.000
    C174     C        0.50000    0.45830    0.33030    1.000
    C175     C        0.50000    0.45160    0.38540    1.000
    O176     O        0.50000    0.52360    0.17310    1.000
    O177     O        0.50000    0.42600    0.12000    1.000
    O178     O        0.50000    0.49740    0.43690    1.000
    O179     O        0.50000    0.39870    0.37754    1.000
    Cd180    Cd       0.50000    0.58819    0.52645    1.000
    H181     H        0.50000    0.72082    0.43153    1.000
    H182     H        0.50000    0.80454    0.62964    1.000
    H183     H        0.50000    0.82593    0.44287    1.000
    H184     H        0.50000    0.90961    0.64021    1.000
    C185     C        0.50000    0.69620    0.52700    1.000
    C186     C        0.50000    0.75640    0.52960    1.000
    C187     C        0.50000    0.76280    0.47880    1.000
    C188     C        0.50000    0.80870    0.58700    1.000
    C189     C        0.50000    0.82090    0.48500    1.000
    C190     C        0.50000    0.86740    0.59310    1.000
    C191     C        0.50000    0.87200    0.54170    1.000
    C192     C        0.50000    0.93380    0.54840    1.000
    O193     O        0.50000    0.64950    0.47640    1.000
    O194     O        0.50000    0.69400    0.57400    1.000
    O195     O        0.50000    0.93950    0.50260    1.000
    O196     O        0.50000    0.97884    0.60130    1.000
    Cd197    Cd       0.50000    0.93826    0.41181    1.000
    H198     H        0.50000    0.71071    0.27918    1.000
    H199     H        0.50000    0.82509    0.19546    1.000
    H200     H        0.50000    0.61694    0.17407    1.000
    H201     H        0.50000    0.73060    0.09039    1.000
    C202     C        0.50000    0.83080    0.30380    1.000
    C203     C        0.50000    0.77320    0.24360    1.000
    C204     C        0.50000    0.71600    0.23720    1.000
    C205     C        0.50000    0.77830    0.19130    1.000
    C206     C        0.50000    0.66410    0.17910    1.000
    C207     C        0.50000    0.72570    0.13260    1.000
    C208     C        0.50000    0.66970    0.12800    1.000
    C209     C        0.50000    0.61460    0.06620    1.000
    O210     O        0.50000    0.82690    0.35050    1.000
    O211     O        0.50000    0.88000    0.30600    1.000
    O212     O        0.50000    0.56310    0.06050    1.000
    O213     O        0.50000    0.62246    0.02116    1.000
    H214     H        0.96573    0.35440    0.10615    1.000
    H215     H        0.05403    0.73017    0.66163    1.000
    H216     H        0.94597    0.93147    0.26983    1.000
    B217     B        0.00000    0.45880    0.90480    1.000
    C218     C        0.00000    0.58200    0.92400    1.000
    C219     C        0.00000    0.64600    0.93000    1.000
    F220     F        0.00000    0.40530    0.84910    1.000
    F221     F        0.00000    0.41910    0.93740    1.000
    B222     B        0.00000    0.44600    0.54120    1.000
    C223     C        0.00000    0.34200    0.41800    1.000
    C224     C        0.00000    0.28400    0.35400    1.000
    F225     F        0.00000    0.44380    0.59470    1.000
    F226     F        0.00000    0.51830    0.58090    1.000
    B227     B        0.00000    0.09520    0.55400    1.000
    C228     C        0.00000    0.07600    0.65800    1.000
    C229     C        0.00000    0.07000    0.71600    1.000
    F230     F        0.00000    0.15090    0.55620    1.000
    F231     F        0.00000    0.06260    0.48170    1.000
    H232     H        0.00000    0.55602    0.87220    1.000
    H233     H        0.00000    0.31618    0.44398    1.000
    H234     H        0.00000    0.12780    0.68382    1.000
    H235     H        0.62429    0.38584    0.99557    1.000
    H236     H        0.62429    0.60973    0.61416    1.000
    H237     H        0.62429    0.00443    0.39027    1.000
    H238     H        0.61919    0.42954    0.87376    1.000
    H239     H        0.74450    0.42547    0.86336    1.000
    H240     H        0.75072    0.61584    0.99577    1.000
    H241     H        0.86107    0.37286    0.85694    1.000
    H242     H        0.79765    0.41523    0.91756    1.000
    H243     H        0.88543    0.40773    0.93834    1.000
    H244     H        0.82767    0.62341    0.90643    1.000
    H245     H        0.90433    0.65503    0.95410    1.000
    H246     H        0.82276    0.65525    0.99011    1.000
    H247     H        0.02701    0.64367    0.88932    1.000
    C248     C        0.65040    0.47230    0.90180    1.000
    C249     C        0.65240    0.57100    0.97140    1.000
    C250     C        0.71870    0.46990    0.89670    1.000
    C251     C        0.72190    0.57160    0.96770    1.000
    C252     C        0.75570    0.51870    0.93010    1.000
    C253     C        0.83100    0.51840    0.92870    1.000
    C254     C        0.87220    0.47280    0.90540    1.000
    C255     C        0.87190    0.56580    0.93950    1.000
    C256     C        0.85280    0.41320    0.90450    1.000
    C257     C        0.93840    0.55100    0.93000    1.000
    C258     C        0.85560    0.62900    0.94810    1.000
    N259     N        0.61640    0.52144    0.93754    1.000
    N260     N        0.93840    0.49260    0.91060    1.000
    H261     H        0.61919    0.44422    0.57046    1.000
    H262     H        0.74450    0.43789    0.57453    1.000
    H263     H        0.75072    0.37993    0.38416    1.000
    H264     H        0.81195    0.48039    0.61136    1.000
    H265     H        0.83329    0.52669    0.57551    1.000
    H266     H        0.89891    0.50994    0.61731    1.000
    H267     H        0.88501    0.27762    0.36410    1.000
    H268     H        0.87030    0.33038    0.33439    1.000
    H269     H        0.79945    0.30897    0.36782    1.000
    H270     H        0.02701    0.24565    0.35633    1.000
    C271     C        0.65040    0.42950    0.52770    1.000
    C272     C        0.65240    0.40040    0.42900    1.000
    C273     C        0.71870    0.42680    0.53010    1.000
    C274     C        0.72190    0.39610    0.42840    1.000
    C275     C        0.75570    0.41140    0.48130    1.000
    C276     C        0.83100    0.41030    0.48160    1.000
    C277     C        0.87220    0.43260    0.52720    1.000
    C278     C        0.87190    0.37370    0.43420    1.000
    C279     C        0.85280    0.49130    0.58680    1.000
    C280     C        0.93840    0.37900    0.44900    1.000
    C281     C        0.85560    0.31910    0.37100    1.000
    N282     N        0.61640    0.41610    0.47856    1.000
    N283     N        0.93840    0.41800    0.50740    1.000
    H284     H        0.61919    0.12624    0.55578    1.000
    H285     H        0.74450    0.13664    0.56211    1.000
    H286     H        0.75072    0.00423    0.62007    1.000
    H287     H        0.87098    0.05189    0.46731    1.000
    H288     H        0.87732    0.13629    0.50919    1.000
    H289     H        0.79585    0.09898    0.50649    1.000
    H290     H        0.82918    0.00645    0.66413    1.000
    H291     H        0.82136    0.09025    0.71389    1.000
    H292     H        0.90421    0.05264    0.70501    1.000
    H293     H        0.02701    0.11068    0.75435    1.000
    C294     C        0.65040    0.09820    0.57050    1.000
    C295     C        0.65240    0.02860    0.59960    1.000
    C296     C        0.71870    0.10330    0.57320    1.000
    C297     C        0.72190    0.03230    0.60390    1.000
    C298     C        0.75570    0.06990    0.58860    1.000
    C299     C        0.83100    0.07130    0.58970    1.000
    C300     C        0.87220    0.09460    0.56740    1.000
    C301     C        0.87190    0.06050    0.62630    1.000
    C302     C        0.85280    0.09550    0.50870    1.000
    C303     C        0.93840    0.07000    0.62100    1.000
    C304     C        0.85560    0.05190    0.68090    1.000
    N305     N        0.61640    0.06246    0.58390    1.000
    N306     N        0.93840    0.08940    0.58200    1.000
    H307     H        0.38081    0.42954    0.87376    1.000
    H308     H        0.25550    0.42547    0.86336    1.000
    H309     H        0.24928    0.61584    0.99577    1.000
    H310     H        0.20235    0.41523    0.91756    1.000
    H311     H        0.13893    0.37286    0.85694    1.000
    H312     H        0.11457    0.40773    0.93834    1.000
    H313     H        0.09567    0.65503    0.95410    1.000
    H314     H        0.17233    0.62341    0.90643    1.000
    H315     H        0.17724    0.65525    0.99011    1.000
    H316     H        0.02701    0.67959    0.97361    1.000
    C317     C        0.34960    0.47230    0.90180    1.000
    C318     C        0.34760    0.57100    0.97140    1.000
    C319     C        0.28130    0.46990    0.89670    1.000
    C320     C        0.27810    0.57160    0.96770    1.000
    C321     C        0.24430    0.51870    0.93010    1.000
    C322     C        0.16900    0.51840    0.92870    1.000
    C323     C        0.12780    0.47280    0.90540    1.000
    C324     C        0.12810    0.56580    0.93950    1.000
    C325     C        0.14720    0.41320    0.90450    1.000
    C326     C        0.06160    0.55100    0.93000    1.000
    C327     C        0.14440    0.62900    0.94810    1.000
    N328     N        0.38360    0.52144    0.93754    1.000
    N329     N        0.06160    0.49260    0.91060    1.000
    H330     H        0.38081    0.44422    0.57046    1.000
    H331     H        0.25550    0.43789    0.57453    1.000
    H332     H        0.24928    0.37993    0.38416    1.000
    H333     H        0.16671    0.52669    0.57551    1.000
    H334     H        0.18805    0.48039    0.61136    1.000
    H335     H        0.10109    0.50994    0.61731    1.000
    H336     H        0.12970    0.33038    0.33439    1.000
    H337     H        0.11499    0.27762    0.36410    1.000
    H338     H        0.20055    0.30897    0.36782    1.000
    H339     H        0.02701    0.29401    0.32041    1.000
    C340     C        0.34960    0.42950    0.52770    1.000
    C341     C        0.34760    0.40040    0.42900    1.000
    C342     C        0.28130    0.42680    0.53010    1.000
    C343     C        0.27810    0.39610    0.42840    1.000
    C344     C        0.24430    0.41140    0.48130    1.000
    C345     C        0.16900    0.41030    0.48160    1.000
    C346     C        0.12780    0.43260    0.52720    1.000
    C347     C        0.12810    0.37370    0.43420    1.000
    C348     C        0.14720    0.49130    0.58680    1.000
    C349     C        0.06160    0.37900    0.44900    1.000
    C350     C        0.14440    0.31910    0.37100    1.000
    N351     N        0.38360    0.41610    0.47856    1.000
    N352     N        0.06160    0.41800    0.50740    1.000
    H353     H        0.38081    0.12624    0.55578    1.000
    H354     H        0.25550    0.13664    0.56211    1.000
    H355     H        0.24928    0.00423    0.62007    1.000
    H356     H        0.12268    0.13629    0.50919    1.000
    H357     H        0.12902    0.05189    0.46731    1.000
    H358     H        0.20415    0.09898    0.50649    1.000
    H359     H        0.17864    0.09025    0.71389    1.000
    H360     H        0.17082    0.00645    0.66413    1.000
    H361     H        0.09579    0.05264    0.70501    1.000
    H362     H        0.02701    0.02639    0.70599    1.000
    C363     C        0.34960    0.09820    0.57050    1.000
    C364     C        0.34760    0.02860    0.59960    1.000
    C365     C        0.28130    0.10330    0.57320    1.000
    C366     C        0.27810    0.03230    0.60390    1.000
    C367     C        0.24430    0.06990    0.58860    1.000
    C368     C        0.16900    0.07130    0.58970    1.000
    C369     C        0.12780    0.09460    0.56740    1.000
    C370     C        0.12810    0.06050    0.62630    1.000
    C371     C        0.14720    0.09550    0.50870    1.000
    C372     C        0.06160    0.07000    0.62100    1.000
    C373     C        0.14440    0.05190    0.68090    1.000
    N374     N        0.38360    0.06246    0.58390    1.000
    N375     N        0.06160    0.08940    0.58200    1.000
    H376     H        0.37571    0.38584    0.99557    1.000
    H377     H        0.37571    0.60973    0.61416    1.000
    H378     H        0.37571    0.00443    0.39027    1.000
    Cd379    Cd       0.50000    0.52645    0.93826    1.000
    H380     H        0.50000    0.43153    0.71071    1.000
    H381     H        0.50000    0.62964    0.82509    1.000
    H382     H        0.50000    0.44287    0.61694    1.000
    H383     H        0.50000    0.64021    0.73060    1.000
    C384     C        0.50000    0.52700    0.83080    1.000
    C385     C        0.50000    0.52960    0.77320    1.000
    C386     C        0.50000    0.47880    0.71600    1.000
    C387     C        0.50000    0.58700    0.77830    1.000
    C388     C        0.50000    0.48500    0.66410    1.000
    C389     C        0.50000    0.59310    0.72570    1.000
    C390     C        0.50000    0.54170    0.66970    1.000
    C391     C        0.50000    0.54840    0.61460    1.000
    O392     O        0.50000    0.47640    0.82690    1.000
    O393     O        0.50000    0.57400    0.88000    1.000
    O394     O        0.50000    0.50260    0.56310    1.000
    O395     O        0.50000    0.60130    0.62246    1.000
    Cd396    Cd       0.50000    0.41181    0.47355    1.000
    H397     H        0.50000    0.27918    0.56847    1.000
    H398     H        0.50000    0.19546    0.37036    1.000
    H399     H        0.50000    0.17407    0.55713    1.000
    H400     H        0.50000    0.09039    0.35979    1.000
    C401     C        0.50000    0.30380    0.47300    1.000
    C402     C        0.50000    0.24360    0.47040    1.000
    C403     C        0.50000    0.23720    0.52120    1.000
    C404     C        0.50000    0.19130    0.41300    1.000
    C405     C        0.50000    0.17910    0.51500    1.000
    C406     C        0.50000    0.13260    0.40690    1.000
    C407     C        0.50000    0.12800    0.45830    1.000
    C408     C        0.50000    0.06620    0.45160    1.000
    O409     O        0.50000    0.35050    0.52360    1.000
    O410     O        0.50000    0.30600    0.42600    1.000
    O411     O        0.50000    0.06050    0.49740    1.000
    O412     O        0.50000    0.02116    0.39870    1.000
    Cd413    Cd       0.50000    0.06174    0.58819    1.000
    H414     H        0.50000    0.28929    0.72082    1.000
    H415     H        0.50000    0.17491    0.80454    1.000
    H416     H        0.50000    0.38306    0.82593    1.000
    H417     H        0.50000    0.26940    0.90961    1.000
    C418     C        0.50000    0.16920    0.69620    1.000
    C419     C        0.50000    0.22680    0.75640    1.000
    C420     C        0.50000    0.28400    0.76280    1.000
    C421     C        0.50000    0.22170    0.80870    1.000
    C422     C        0.50000    0.33590    0.82090    1.000
    C423     C        0.50000    0.27430    0.86740    1.000
    C424     C        0.50000    0.33030    0.87200    1.000
    C425     C        0.50000    0.38540    0.93380    1.000
    O426     O        0.50000    0.17310    0.64950    1.000
    O427     O        0.50000    0.12000    0.69400    1.000
    O428     O        0.50000    0.43690    0.93950    1.000
    O429     O        0.50000    0.37754    0.97884    1.000
    H430     H        0.94597    0.66163    0.93147    1.000
    H431     H        0.94597    0.26983    0.33837    1.000
    H432     H        0.94597    0.06853    0.73017    1.000
