# CIF file generated by openbabel 3.1.0, see https://openbabel.org
data_I
_chemical_name_common 'image0'
_cell_length_a 28.947
_cell_length_b 8.3321
_cell_length_c 18.3283
_cell_angle_alpha 90
_cell_angle_beta 114.792
_cell_angle_gamma 90
_space_group_name_H-M_alt 'P 1'
_space_group_name_Hall 'P 1'
loop_
    _symmetry_equiv_pos_as_xyz
    x,y,z
loop_
    _atom_site_label
    _atom_site_type_symbol
    _atom_site_fract_x
    _atom_site_fract_y
    _atom_site_fract_z
    _atom_site_occupancy
    Zn1      Zn       0.30639    0.22207    0.11587    1.000
    N1       N        0.38410    0.79540    0.13470    1.000
    O1       O        0.37560    0.30350    0.23080    1.000
    N2       N        0.33380    0.99920    0.12000    1.000
    N3       N        0.48460    0.52600    0.51190    1.000
    O2       O        0.30170    0.36610    0.20620    1.000
    C1       C        0.30980    0.63840    0.46760    1.000
    C2       C        0.43140    0.51560    0.45620    1.000
    C3       C        0.32790    0.51050    0.35860    1.000
    H1       H        0.29330    0.51090    0.32500    1.000
    C4       C        0.34530    0.57460    0.43520    1.000
    C5       C        0.43050    0.70100    0.15130    1.000
    H2       H        0.45530    0.76930    0.14380    1.000
    H3       H        0.42230    0.61430    0.11260    1.000
    C6       C        0.42480    0.06880    0.15380    1.000
    H4       H        0.44440    0.07750    0.21080    1.000
    H5       H        0.41190    0.17260    0.13200    1.000
    H6       H        0.44600    0.02860    0.12930    1.000
    C7       C        0.36250    0.44540    0.33250    1.000
    C8       C        0.38150    0.95660    0.13720    1.000
    H7       H        0.49330    0.46460    0.20390    1.000
    C9       C        0.39760    0.57900    0.48400    1.000
    H8       H        0.40960    0.62430    0.53500    1.000
    C10      C        0.41360    0.44770    0.38030    1.000
    H9       H        0.43640    0.40400    0.36200    1.000
    C11      C        0.33710    0.73410    0.11660    1.000
    H10      H        0.32810    0.62620    0.11180    1.000
    C12      C        0.30600    0.86080    0.10700    1.000
    H11      H        0.27130    0.85500    0.09370    1.000
    C13      C        0.45410    0.63110    0.23490    1.000
    H12      H        0.46330    0.71790    0.27370    1.000
    H13      H        0.42910    0.56480    0.24290    1.000
    C14      C        0.34600    0.36590    0.25160    1.000
    O3       O        0.49520    0.61970    0.58580    1.000
    O4       O        0.32652    0.65950    0.54240    1.000
    O5       O        0.26580    0.66360    0.41890    1.000
    Zn2      Zn       0.80639    0.72207    0.11587    1.000
    N4       N        0.88410    0.29540    0.13470    1.000
    O6       O        0.87560    0.80350    0.23080    1.000
    N5       N        0.83380    0.49920    0.12000    1.000
    N6       N        0.98460    0.02600    0.51190    1.000
    O7       O        0.80170    0.86610    0.20620    1.000
    C15      C        0.80980    0.13840    0.46760    1.000
    C16      C        0.93140    0.01560    0.45620    1.000
    C17      C        0.82790    0.01050    0.35860    1.000
    H14      H        0.79330    0.01090    0.32500    1.000
    C18      C        0.84530    0.07460    0.43520    1.000
    C19      C        0.93050    0.20100    0.15130    1.000
    H15      H        0.95530    0.26930    0.14380    1.000
    H16      H        0.92230    0.11430    0.11260    1.000
    C20      C        0.92480    0.56880    0.15380    1.000
    H17      H        0.94440    0.57750    0.21080    1.000
    H18      H        0.91190    0.67260    0.13200    1.000
    H19      H        0.94600    0.52860    0.12930    1.000
    C21      C        0.86250    0.94540    0.33250    1.000
    C22      C        0.88150    0.45660    0.13720    1.000
    H20      H        0.99330    0.96460    0.20390    1.000
    C23      C        0.89760    0.07900    0.48400    1.000
    H21      H        0.90960    0.12430    0.53500    1.000
    C24      C        0.91360    0.94770    0.38030    1.000
    H22      H        0.93640    0.90400    0.36200    1.000
    C25      C        0.83710    0.23410    0.11660    1.000
    H23      H        0.82810    0.12620    0.11180    1.000
    C26      C        0.80600    0.36080    0.10700    1.000
    H24      H        0.77130    0.35500    0.09370    1.000
    C27      C        0.95410    0.13110    0.23490    1.000
    H25      H        0.96330    0.21790    0.27370    1.000
    H26      H        0.92910    0.06480    0.24290    1.000
    C28      C        0.84600    0.86590    0.25160    1.000
    O8       O        0.99520    0.11970    0.58580    1.000
    O9       O        0.82652    0.15950    0.54240    1.000
    O10      O        0.76580    0.16360    0.41890    1.000
    Zn3      Zn       0.69361    0.22207    0.38413    1.000
    N7       N        0.61590    0.79540    0.36530    1.000
    O11      O        0.62440    0.30350    0.26920    1.000
    N8       N        0.66620    0.99920    0.38000    1.000
    N9       N        0.51540    0.52600    0.98810    1.000
    O12      O        0.69830    0.36610    0.29380    1.000
    C29      C        0.69020    0.63840    0.03240    1.000
    C30      C        0.56860    0.51560    0.04380    1.000
    C31      C        0.67210    0.51050    0.14140    1.000
    H27      H        0.70670    0.51090    0.17500    1.000
    C32      C        0.65470    0.57460    0.06480    1.000
    C33      C        0.56950    0.70100    0.34870    1.000
    H28      H        0.54470    0.76930    0.35620    1.000
    H29      H        0.57770    0.61430    0.38740    1.000
    C34      C        0.57520    0.06880    0.34620    1.000
    H30      H        0.55560    0.07750    0.28920    1.000
    H31      H        0.58810    0.17260    0.36800    1.000
    H32      H        0.55400    0.02860    0.37070    1.000
    C35      C        0.63750    0.44540    0.16750    1.000
    C36      C        0.61850    0.95660    0.36280    1.000
    H33      H        0.50670    0.46460    0.29610    1.000
    C37      C        0.60240    0.57900    0.01600    1.000
    H34      H        0.59040    0.62430    0.96500    1.000
    C38      C        0.58640    0.44770    0.11970    1.000
    H35      H        0.56360    0.40400    0.13800    1.000
    C39      C        0.66290    0.73410    0.38340    1.000
    H36      H        0.67190    0.62620    0.38820    1.000
    C40      C        0.69400    0.86080    0.39300    1.000
    H37      H        0.72870    0.85500    0.40630    1.000
    C41      C        0.54590    0.63110    0.26510    1.000
    H38      H        0.53670    0.71790    0.22630    1.000
    H39      H        0.57090    0.56480    0.25710    1.000
    C42      C        0.65400    0.36590    0.24840    1.000
    O13      O        0.50480    0.61970    0.91420    1.000
    O14      O        0.67348    0.65950    0.95760    1.000
    O15      O        0.73420    0.66360    0.08110    1.000
    Zn4      Zn       0.19361    0.72207    0.38413    1.000
    N10      N        0.11590    0.29540    0.36530    1.000
    O16      O        0.12440    0.80350    0.26920    1.000
    N11      N        0.16620    0.49920    0.38000    1.000
    N12      N        0.01540    0.02600    0.98810    1.000
    O17      O        0.19830    0.86610    0.29380    1.000
    C43      C        0.19020    0.13840    0.03240    1.000
    C44      C        0.06860    0.01560    0.04380    1.000
    C45      C        0.17210    0.01050    0.14140    1.000
    H40      H        0.20670    0.01090    0.17500    1.000
    C46      C        0.15470    0.07460    0.06480    1.000
    C47      C        0.06950    0.20100    0.34870    1.000
    H41      H        0.04470    0.26930    0.35620    1.000
    H42      H        0.07770    0.11430    0.38740    1.000
    C48      C        0.07520    0.56880    0.34620    1.000
    H43      H        0.05560    0.57750    0.28920    1.000
    H44      H        0.08810    0.67260    0.36800    1.000
    H45      H        0.05400    0.52860    0.37070    1.000
    C49      C        0.13750    0.94540    0.16750    1.000
    C50      C        0.11850    0.45660    0.36280    1.000
    H46      H        0.00670    0.96460    0.29610    1.000
    C51      C        0.10240    0.07900    0.01600    1.000
    H47      H        0.09040    0.12430    0.96500    1.000
    C52      C        0.08640    0.94770    0.11970    1.000
    H48      H        0.06360    0.90400    0.13800    1.000
    C53      C        0.16290    0.23410    0.38340    1.000
    H49      H        0.17190    0.12620    0.38820    1.000
    C54      C        0.19400    0.36080    0.39300    1.000
    H50      H        0.22870    0.35500    0.40630    1.000
    C55      C        0.04590    0.13110    0.26510    1.000
    H51      H        0.03670    0.21790    0.22630    1.000
    H52      H        0.07090    0.06480    0.25710    1.000
    C56      C        0.15400    0.86590    0.24840    1.000
    O18      O        0.00480    0.11970    0.91420    1.000
    O19      O        0.17348    0.15950    0.95760    1.000
    O20      O        0.23420    0.16360    0.08110    1.000
    Zn5      Zn       0.69361    0.77793    0.88413    1.000
    N13      N        0.61590    0.20460    0.86530    1.000
    O21      O        0.62440    0.69650    0.76920    1.000
    N14      N        0.66620    0.00080    0.88000    1.000
    N15      N        0.51540    0.47400    0.48810    1.000
    O22      O        0.69830    0.63390    0.79380    1.000
    C57      C        0.69020    0.36160    0.53240    1.000
    C58      C        0.56860    0.48440    0.54380    1.000
    C59      C        0.67210    0.48950    0.64140    1.000
    H53      H        0.70670    0.48910    0.67500    1.000
    C60      C        0.65470    0.42540    0.56480    1.000
    C61      C        0.56950    0.29900    0.84870    1.000
    H54      H        0.54470    0.23070    0.85620    1.000
    H55      H        0.57770    0.38570    0.88740    1.000
    C62      C        0.57520    0.93120    0.84620    1.000
    H56      H        0.55560    0.92250    0.78920    1.000
    H57      H        0.58810    0.82740    0.86800    1.000
    H58      H        0.55400    0.97140    0.87070    1.000
    C63      C        0.63750    0.55460    0.66750    1.000
    C64      C        0.61850    0.04340    0.86280    1.000
    H59      H        0.50670    0.53540    0.79610    1.000
    C65      C        0.60240    0.42100    0.51600    1.000
    H60      H        0.59040    0.37570    0.46500    1.000
    C66      C        0.58640    0.55230    0.61970    1.000
    H61      H        0.56360    0.59600    0.63800    1.000
    C67      C        0.66290    0.26590    0.88340    1.000
    H62      H        0.67190    0.37380    0.88820    1.000
    C68      C        0.69400    0.13920    0.89300    1.000
    H63      H        0.72870    0.14500    0.90630    1.000
    C69      C        0.54590    0.36890    0.76510    1.000
    H64      H        0.53670    0.28210    0.72630    1.000
    H65      H        0.57090    0.43520    0.75710    1.000
    C70      C        0.65400    0.63410    0.74840    1.000
    O23      O        0.50480    0.38030    0.41420    1.000
    O24      O        0.67348    0.34050    0.45760    1.000
    O25      O        0.73420    0.33640    0.58110    1.000
    Zn6      Zn       0.19361    0.27793    0.88413    1.000
    N16      N        0.11590    0.70460    0.86530    1.000
    O26      O        0.12440    0.19650    0.76920    1.000
    N17      N        0.16620    0.50080    0.88000    1.000
    N18      N        0.01540    0.97400    0.48810    1.000
    O27      O        0.19830    0.13390    0.79380    1.000
    C71      C        0.19020    0.86160    0.53240    1.000
    C72      C        0.06860    0.98440    0.54380    1.000
    C73      C        0.17210    0.98950    0.64140    1.000
    H66      H        0.20670    0.98910    0.67500    1.000
    C74      C        0.15470    0.92540    0.56480    1.000
    C75      C        0.06950    0.79900    0.84870    1.000
    H67      H        0.04470    0.73070    0.85620    1.000
    H68      H        0.07770    0.88570    0.88740    1.000
    C76      C        0.07520    0.43120    0.84620    1.000
    H69      H        0.05560    0.42250    0.78920    1.000
    H70      H        0.08810    0.32740    0.86800    1.000
    H71      H        0.05400    0.47140    0.87070    1.000
    C77      C        0.13750    0.05460    0.66750    1.000
    C78      C        0.11850    0.54340    0.86280    1.000
    H72      H        0.00670    0.03540    0.79610    1.000
    C79      C        0.10240    0.92100    0.51600    1.000
    H73      H        0.09040    0.87570    0.46500    1.000
    C80      C        0.08640    0.05230    0.61970    1.000
    H74      H        0.06360    0.09600    0.63800    1.000
    C81      C        0.16290    0.76590    0.88340    1.000
    H75      H        0.17190    0.87380    0.88820    1.000
    C82      C        0.19400    0.63920    0.89300    1.000
    H76      H        0.22870    0.64500    0.90630    1.000
    C83      C        0.04590    0.86890    0.76510    1.000
    H77      H        0.03670    0.78210    0.72630    1.000
    H78      H        0.07090    0.93520    0.75710    1.000
    C84      C        0.15400    0.13410    0.74840    1.000
    O28      O        0.00480    0.88030    0.41420    1.000
    O29      O        0.17348    0.84050    0.45760    1.000
    O30      O        0.23420    0.83640    0.58110    1.000
    Zn7      Zn       0.30639    0.77793    0.61587    1.000
    N19      N        0.38410    0.20460    0.63470    1.000
    O31      O        0.37560    0.69650    0.73080    1.000
    N20      N        0.33380    0.00080    0.62000    1.000
    N21      N        0.48460    0.47400    0.01190    1.000
    O32      O        0.30170    0.63390    0.70620    1.000
    C85      C        0.30980    0.36160    0.96760    1.000
    C86      C        0.43140    0.48440    0.95620    1.000
    C87      C        0.32790    0.48950    0.85860    1.000
    H79      H        0.29330    0.48910    0.82500    1.000
    C88      C        0.34530    0.42540    0.93520    1.000
    C89      C        0.43050    0.29900    0.65130    1.000
    H80      H        0.45530    0.23070    0.64380    1.000
    H81      H        0.42230    0.38570    0.61260    1.000
    C90      C        0.42480    0.93120    0.65380    1.000
    H82      H        0.44440    0.92250    0.71080    1.000
    H83      H        0.41190    0.82740    0.63200    1.000
    H84      H        0.44600    0.97140    0.62930    1.000
    C91      C        0.36250    0.55460    0.83250    1.000
    C92      C        0.38150    0.04340    0.63720    1.000
    H85      H        0.49330    0.53540    0.70390    1.000
    C93      C        0.39760    0.42100    0.98400    1.000
    H86      H        0.40960    0.37570    0.03500    1.000
    C94      C        0.41360    0.55230    0.88030    1.000
    H87      H        0.43640    0.59600    0.86200    1.000
    C95      C        0.33710    0.26590    0.61660    1.000
    H88      H        0.32810    0.37380    0.61180    1.000
    C96      C        0.30600    0.13920    0.60700    1.000
    H89      H        0.27130    0.14500    0.59370    1.000
    C97      C        0.45410    0.36890    0.73490    1.000
    H90      H        0.46330    0.28210    0.77370    1.000
    H91      H        0.42910    0.43520    0.74290    1.000
    C98      C        0.34600    0.63410    0.75160    1.000
    O33      O        0.49520    0.38030    0.08580    1.000
    O34      O        0.32652    0.34050    0.04240    1.000
    O35      O        0.26580    0.33640    0.91890    1.000
    Zn8      Zn       0.80639    0.27793    0.61587    1.000
    N22      N        0.88410    0.70460    0.63470    1.000
    O36      O        0.87560    0.19650    0.73080    1.000
    N23      N        0.83380    0.50080    0.62000    1.000
    N24      N        0.98460    0.97400    0.01190    1.000
    O37      O        0.80170    0.13390    0.70620    1.000
    C99      C        0.80980    0.86160    0.96760    1.000
    C100     C        0.93140    0.98440    0.95620    1.000
    C101     C        0.82790    0.98950    0.85860    1.000
    H92      H        0.79330    0.98910    0.82500    1.000
    C102     C        0.84530    0.92540    0.93520    1.000
    C103     C        0.93050    0.79900    0.65130    1.000
    H93      H        0.95530    0.73070    0.64380    1.000
    H94      H        0.92230    0.88570    0.61260    1.000
    C104     C        0.92480    0.43120    0.65380    1.000
    H95      H        0.94440    0.42250    0.71080    1.000
    H96      H        0.91190    0.32740    0.63200    1.000
    H97      H        0.94600    0.47140    0.62930    1.000
    C105     C        0.86250    0.05460    0.83250    1.000
    C106     C        0.88150    0.54340    0.63720    1.000
    H98      H        0.99330    0.03540    0.70390    1.000
    C107     C        0.89760    0.92100    0.98400    1.000
    H99      H        0.90960    0.87570    0.03500    1.000
    C108     C        0.91360    0.05230    0.88030    1.000
    H100     H        0.93640    0.09600    0.86200    1.000
    C109     C        0.83710    0.76590    0.61660    1.000
    H101     H        0.82810    0.87380    0.61180    1.000
    C110     C        0.80600    0.63920    0.60700    1.000
    H102     H        0.77130    0.64500    0.59370    1.000
    C111     C        0.95410    0.86890    0.73490    1.000
    H103     H        0.96330    0.78210    0.77370    1.000
    H104     H        0.92910    0.93520    0.74290    1.000
    C112     C        0.84600    0.13410    0.75160    1.000
    O38      O        0.99520    0.88030    0.08580    1.000
    O39      O        0.82652    0.84050    0.04240    1.000
    O40      O        0.76580    0.83640    0.91890    1.000
    C113     C        0.50000    0.53320    0.25000    1.000
    C114     C        0.00000    0.03320    0.25000    1.000
    C115     C        0.50000    0.46680    0.75000    1.000
    C116     C        0.00000    0.96680    0.75000    1.000
