# CIF file generated by openbabel 3.1.0, see https://openbabel.org
data_I
_chemical_name_common 'image0'
_cell_length_a 6.0327
_cell_length_b 12.7752
_cell_length_c 13.1775
_cell_angle_alpha 118.99
_cell_angle_beta 90.575
_cell_angle_gamma 91.67
_space_group_name_H-M_alt 'P 1'
_space_group_name_Hall 'P 1'
loop_
    _symmetry_equiv_pos_as_xyz
    x,y,z
loop_
    _atom_site_label
    _atom_site_type_symbol
    _atom_site_fract_x
    _atom_site_fract_y
    _atom_site_fract_z
    _atom_site_occupancy
    Er1      Er       0.27633    0.16011    0.32198    1.000
    N1       N        0.41400    0.07300    0.10910    1.000
    N2       N        0.07680    0.04790    0.43110    1.000
    N3       N        0.43050    0.37950    0.44500    1.000
    O1       O        0.66310    0.16550    0.29730    1.000
    O2       O        0.44900    0.17900    0.48550    1.000
    O3       O        0.19190    0.28500    0.24810    1.000
    O4       O        0.96050    0.06790    0.20340    1.000
    C1       C        0.62450    0.03970    0.09660    1.000
    C2       C        0.29010    0.03460    0.01090    1.000
    C3       C        0.18790    0.06590    0.52670    1.000
    C4       C        0.88930    0.98140    0.40450    1.000
    C5       C        0.38500    0.45070    0.40010    1.000
    C6       C        0.54430    0.42980    0.54510    1.000
    C7       C        0.76130    0.09420    0.20730    1.000
    C8       C        0.40180    0.13970    0.55380    1.000
    C9       C        0.24960    0.39360    0.28780    1.000
    H1       H        0.14470    0.05850    0.01560    1.000
    H2       H        0.80790    0.96630    0.33810    1.000
    H3       H        0.57770    0.38340    0.57960    1.000
    O5       O        0.51920    0.15590    0.63870    1.000
    O6       O        0.20260    0.45660    0.24330    1.000
    Er2      Er       0.72367    0.83989    0.67802    1.000
    N4       N        0.58600    0.92700    0.89090    1.000
    N5       N        0.92320    0.95210    0.56890    1.000
    N6       N        0.56950    0.62050    0.55500    1.000
    O7       O        0.33690    0.83450    0.70270    1.000
    O8       O        0.55100    0.82100    0.51450    1.000
    O9       O        0.80810    0.71500    0.75190    1.000
    O10      O        0.03950    0.93210    0.79660    1.000
    C10      C        0.37550    0.96030    0.90340    1.000
    C11      C        0.70990    0.96540    0.98910    1.000
    C12      C        0.81210    0.93410    0.47330    1.000
    C13      C        0.11070    0.01860    0.59550    1.000
    C14      C        0.61500    0.54930    0.59990    1.000
    C15      C        0.45570    0.57020    0.45490    1.000
    C16      C        0.23870    0.90580    0.79270    1.000
    C17      C        0.59820    0.86030    0.44620    1.000
    C18      C        0.75040    0.60640    0.71220    1.000
    H4       H        0.85530    0.94150    0.98440    1.000
    H5       H        0.19210    0.03370    0.66190    1.000
    H6       H        0.42230    0.61660    0.42040    1.000
    O11      O        0.48080    0.84410    0.36130    1.000
    O12      O        0.79740    0.54340    0.75670    1.000
