# CIF file generated by openbabel 3.1.0, see https://openbabel.org
data_I
_chemical_name_common 'VACFUB01_clean'
_cell_length_a 6.262
_cell_length_b 15.512
_cell_length_c 15.512
_cell_angle_alpha 120
_cell_angle_beta 90
_cell_angle_gamma 90
_space_group_name_H-M_alt 'P 1'
_space_group_name_Hall 'P 1'
loop_
    _symmetry_equiv_pos_as_xyz
    x,y,z
loop_
    _atom_site_label
    _atom_site_type_symbol
    _atom_site_fract_x
    _atom_site_fract_y
    _atom_site_fract_z
    _atom_site_occupancy
    Zn1      Zn       0.85040    0.50000    0.50000    1.000
    Zn2      Zn       0.18373    0.00000    0.50000    1.000
    Zn3      Zn       0.51707    0.50000    0.00000    1.000
    H1       H        0.21540    0.72360    0.60190    1.000
    H2       H        0.42610    0.59710    0.58900    1.000
    H3       H        0.87800    0.66580    0.46190    1.000
    H4       H        0.68400    0.79780    0.47670    1.000
    H5       H        0.54873    0.87830    0.27640    1.000
    H6       H        0.75943    0.99190    0.40290    1.000
    H7       H        0.21133    0.79610    0.33420    1.000
    H8       H        0.01733    0.67890    0.20220    1.000
    H9       H        0.88207    0.39810    0.12170    1.000
    H10      H        0.09277    0.41100    0.00810    1.000
    H11      H        0.54467    0.53810    0.20390    1.000
    H12      H        0.35067    0.52330    0.32110    1.000
    H13      H        0.21540    0.27640    0.39810    1.000
    H14      H        0.42610    0.40290    0.41100    1.000
    H15      H        0.87800    0.33420    0.53810    1.000
    H16      H        0.68400    0.20220    0.52330    1.000
    H17      H        0.54873    0.12170    0.72360    1.000
    H18      H        0.75943    0.00810    0.59710    1.000
    H19      H        0.21133    0.20390    0.66580    1.000
    H20      H        0.01733    0.32110    0.79780    1.000
    H21      H        0.88207    0.60190    0.87830    1.000
    H22      H        0.09277    0.58900    0.99190    1.000
    H23      H        0.54467    0.46190    0.79610    1.000
    H24      H        0.35067    0.47670    0.67890    1.000
    C1       C        0.28720    0.85610    0.54230    1.000
    C2       C        0.42610    0.77370    0.53790    1.000
    C3       C        0.35020    0.71300    0.57310    1.000
    C4       C        0.47720    0.63710    0.56470    1.000
    C5       C        0.74320    0.67800    0.49080    1.000
    C6       C        0.62660    0.75660    0.49840    1.000
    C7       C        0.62053    0.68620    0.14390    1.000
    C8       C        0.75943    0.76420    0.22630    1.000
    C9       C        0.68353    0.86010    0.28700    1.000
    C10      C        0.81053    0.92760    0.36290    1.000
    C11      C        0.07653    0.81280    0.32200    1.000
    C12      C        0.95993    0.74180    0.24340    1.000
    C13      C        0.95387    0.45770    0.31380    1.000
    C14      C        0.09277    0.46210    0.23580    1.000
    C15      C        0.01687    0.42690    0.13990    1.000
    C16      C        0.14387    0.43530    0.07240    1.000
    C17      C        0.40987    0.50920    0.18720    1.000
    C18      C        0.29327    0.50160    0.25820    1.000
    C19      C        0.28720    0.14390    0.45770    1.000
    C20      C        0.42610    0.22630    0.46210    1.000
    C21      C        0.35020    0.28700    0.42690    1.000
    C22      C        0.47720    0.36290    0.43530    1.000
    C23      C        0.74320    0.32200    0.50920    1.000
    C24      C        0.62660    0.24340    0.50160    1.000
    C25      C        0.62053    0.31380    0.85610    1.000
    C26      C        0.75943    0.23580    0.77370    1.000
    C27      C        0.68353    0.13990    0.71300    1.000
    C28      C        0.81053    0.07240    0.63710    1.000
    C29      C        0.07653    0.18720    0.67800    1.000
    C30      C        0.95993    0.25820    0.75660    1.000
    C31      C        0.95387    0.54230    0.68620    1.000
    C32      C        0.09277    0.53790    0.76420    1.000
    C33      C        0.01687    0.57310    0.86010    1.000
    C34      C        0.14387    0.56470    0.92760    1.000
    C35      C        0.40987    0.49080    0.81280    1.000
    C36      C        0.29327    0.49840    0.74180    1.000
    N1       N        0.67040    0.61831    0.52341    1.000
    N2       N        0.00373    0.90510    0.38169    1.000
    N3       N        0.33707    0.47659    0.09490    1.000
    N4       N        0.67040    0.38169    0.47659    1.000
    N5       N        0.00373    0.09490    0.61831    1.000
    N6       N        0.33707    0.52341    0.90510    1.000
    O1       O        0.38340    0.91458    0.51939    1.000
    O2       O        0.09710    0.85850    0.55960    1.000
    O3       O        0.71673    0.60481    0.08542    1.000
    O4       O        0.43043    0.70110    0.14150    1.000
    O5       O        0.05007    0.48061    0.39519    1.000
    O6       O        0.76377    0.44040    0.29890    1.000
    O7       O        0.38340    0.08542    0.48061    1.000
    O8       O        0.09710    0.14150    0.44040    1.000
    O9       O        0.71673    0.39519    0.91458    1.000
    O10      O        0.43043    0.29890    0.85850    1.000
    O11      O        0.05007    0.51939    0.60481    1.000
    O12      O        0.76377    0.55960    0.70110    1.000
