# CIF file generated by openbabel 3.1.0, see https://openbabel.org
data_I
_chemical_name_common 'image0'
_cell_length_a 12.328
_cell_length_b 21.579
_cell_length_c 26.024
_cell_angle_alpha 90
_cell_angle_beta 99.54
_cell_angle_gamma 90
_space_group_name_H-M_alt 'P 1'
_space_group_name_Hall 'P 1'
loop_
    _symmetry_equiv_pos_as_xyz
    x,y,z
loop_
    _atom_site_label
    _atom_site_type_symbol
    _atom_site_fract_x
    _atom_site_fract_y
    _atom_site_fract_z
    _atom_site_occupancy
    Mo1      Mo       0.06871    0.35793    0.40481    1.000
    Mo2      Mo       0.95489    0.26301    0.42492    1.000
    Mo3      Mo       0.42887    0.23176    0.39479    1.000
    Mo4      Mo       0.28359    0.10438    0.42424    1.000
    Mo5      Mo       0.34151    0.34050    0.38950    1.000
    Mo6      Mo       0.07998    0.11745    0.43675    1.000
    Co1      Co       0.14812    0.56524    0.29301    1.000
    P1       P        0.14909    0.22611    0.35137    1.000
    P2       P        0.41394    0.10469    0.32182    1.000
    P3       P        0.85306    0.14406    0.35311    1.000
    P4       P        0.16882    0.41451    0.30056    1.000
    O1       O        0.14240    0.36814    0.25642    1.000
    O2       O        0.16890    0.47785    0.27618    1.000
    O3       O        0.28180    0.40053    0.33119    1.000
    O4       O        0.74090    0.11076    0.34828    1.000
    O5       O        0.50490    0.06009    0.31423    1.000
    O6       O        0.08170    0.40984    0.33831    1.000
    O7       O        0.88690    0.15561    0.30092    1.000
    O8       O        0.14500    0.07728    0.38325    1.000
    O9       O        0.94970    0.31326    0.36257    1.000
    O10      O        0.10160    0.21936    0.29429    1.000
    O11      O        0.99020    0.18385    0.47165    1.000
    O12      O        0.38320    0.28733    0.33648    1.000
    O13      O        0.06710    0.20248    0.38614    1.000
    O14      O        0.35020    0.27564    0.44412    1.000
    O15      O        0.17460    0.29536    0.36503    1.000
    O16      O        0.84130    0.20529    0.38227    1.000
    O17      O        0.25690    0.18962    0.36786    1.000
    O18      O        0.35300    0.07451    0.36254    1.000
    O19      O        0.21520    0.16134    0.46959    1.000
    O20      O        0.46150    0.16881    0.33999    1.000
    O21      O        0.23190    0.38611    0.43020    1.000
    O22      O        0.93460    0.10102    0.38869    1.000
    O23      O        0.09870    0.29444    0.45923    1.000
    O24      O        0.42280    0.15595    0.44214    1.000
    O25      O        0.33440    0.11306    0.27031    1.000
    Na1      Na       0.90980    0.45632    0.31410    1.000
    Mo7      Mo       0.56871    0.85793    0.40481    1.000
    Mo8      Mo       0.45489    0.76301    0.42492    1.000
    Mo9      Mo       0.92887    0.73176    0.39479    1.000
    Mo10     Mo       0.78359    0.60438    0.42424    1.000
    Mo11     Mo       0.84151    0.84050    0.38950    1.000
    Mo12     Mo       0.57998    0.61745    0.43675    1.000
    Co2      Co       0.64812    0.06524    0.29301    1.000
    P5       P        0.64909    0.72611    0.35137    1.000
    P6       P        0.91394    0.60469    0.32182    1.000
    P7       P        0.35306    0.64406    0.35311    1.000
    P8       P        0.66882    0.91451    0.30056    1.000
    O26      O        0.64240    0.86814    0.25642    1.000
    O27      O        0.66890    0.97785    0.27618    1.000
    O28      O        0.78180    0.90053    0.33119    1.000
    O29      O        0.24090    0.61076    0.34828    1.000
    O30      O        0.00490    0.56009    0.31423    1.000
    O31      O        0.58170    0.90984    0.33831    1.000
    O32      O        0.38690    0.65561    0.30092    1.000
    O33      O        0.64500    0.57728    0.38325    1.000
    O34      O        0.44970    0.81326    0.36257    1.000
    O35      O        0.60160    0.71936    0.29429    1.000
    O36      O        0.49020    0.68385    0.47165    1.000
    O37      O        0.88320    0.78733    0.33648    1.000
    O38      O        0.56710    0.70248    0.38614    1.000
    O39      O        0.85020    0.77564    0.44412    1.000
    O40      O        0.67460    0.79536    0.36503    1.000
    O41      O        0.34130    0.70529    0.38227    1.000
    O42      O        0.75690    0.68962    0.36786    1.000
    O43      O        0.85300    0.57451    0.36254    1.000
    O44      O        0.71520    0.66134    0.46959    1.000
    O45      O        0.96150    0.66881    0.33999    1.000
    O46      O        0.73190    0.88611    0.43020    1.000
    O47      O        0.43460    0.60102    0.38869    1.000
    O48      O        0.59870    0.79444    0.45923    1.000
    O49      O        0.92280    0.65595    0.44214    1.000
    O50      O        0.83440    0.61306    0.27031    1.000
    Na2      Na       0.40980    0.95632    0.31410    1.000
    Mo13     Mo       0.93129    0.35793    0.09519    1.000
    Mo14     Mo       0.04511    0.26301    0.07508    1.000
    Mo15     Mo       0.57113    0.23176    0.10521    1.000
    Mo16     Mo       0.71641    0.10438    0.07576    1.000
    Mo17     Mo       0.65849    0.34050    0.11050    1.000
    Mo18     Mo       0.92002    0.11745    0.06325    1.000
    Co3      Co       0.85188    0.56524    0.20699    1.000
    P9       P        0.85091    0.22611    0.14863    1.000
    P10      P        0.58606    0.10469    0.17818    1.000
    P11      P        0.14694    0.14406    0.14689    1.000
    P12      P        0.83118    0.41451    0.19944    1.000
    O51      O        0.85760    0.36814    0.24358    1.000
    O52      O        0.83110    0.47785    0.22382    1.000
    O53      O        0.71820    0.40053    0.16881    1.000
    O54      O        0.25910    0.11076    0.15172    1.000
    O55      O        0.49510    0.06009    0.18577    1.000
    O56      O        0.91830    0.40984    0.16169    1.000
    O57      O        0.11310    0.15561    0.19908    1.000
    O58      O        0.85500    0.07728    0.11675    1.000
    O59      O        0.05030    0.31326    0.13743    1.000
    O60      O        0.89840    0.21936    0.20571    1.000
    O61      O        0.00980    0.18385    0.02835    1.000
    O62      O        0.61680    0.28733    0.16352    1.000
    O63      O        0.93290    0.20248    0.11386    1.000
    O64      O        0.64980    0.27564    0.05588    1.000
    O65      O        0.82540    0.29536    0.13497    1.000
    O66      O        0.15870    0.20529    0.11773    1.000
    O67      O        0.74310    0.18962    0.13214    1.000
    O68      O        0.64700    0.07451    0.13746    1.000
    O69      O        0.78480    0.16134    0.03041    1.000
    O70      O        0.53850    0.16881    0.16001    1.000
    O71      O        0.76810    0.38611    0.06980    1.000
    O72      O        0.06540    0.10102    0.11131    1.000
    O73      O        0.90130    0.29444    0.04077    1.000
    O74      O        0.57720    0.15595    0.05786    1.000
    O75      O        0.66560    0.11306    0.22969    1.000
    Na3      Na       0.09020    0.45632    0.18590    1.000
    Mo19     Mo       0.43129    0.85793    0.09519    1.000
    Mo20     Mo       0.54511    0.76301    0.07508    1.000
    Mo21     Mo       0.07113    0.73176    0.10521    1.000
    Mo22     Mo       0.21641    0.60438    0.07576    1.000
    Mo23     Mo       0.15849    0.84050    0.11050    1.000
    Mo24     Mo       0.42002    0.61745    0.06325    1.000
    Co4      Co       0.35188    0.06524    0.20699    1.000
    P13      P        0.35091    0.72611    0.14863    1.000
    P14      P        0.08606    0.60469    0.17818    1.000
    P15      P        0.64694    0.64406    0.14689    1.000
    P16      P        0.33118    0.91451    0.19944    1.000
    O76      O        0.35760    0.86814    0.24358    1.000
    O77      O        0.33110    0.97785    0.22382    1.000
    O78      O        0.21820    0.90053    0.16881    1.000
    O79      O        0.75910    0.61076    0.15172    1.000
    O80      O        0.99510    0.56009    0.18577    1.000
    O81      O        0.41830    0.90984    0.16169    1.000
    O82      O        0.61310    0.65561    0.19908    1.000
    O83      O        0.35500    0.57728    0.11675    1.000
    O84      O        0.55030    0.81326    0.13743    1.000
    O85      O        0.39840    0.71936    0.20571    1.000
    O86      O        0.50980    0.68385    0.02835    1.000
    O87      O        0.11680    0.78733    0.16352    1.000
    O88      O        0.43290    0.70248    0.11386    1.000
    O89      O        0.14980    0.77564    0.05588    1.000
    O90      O        0.32540    0.79536    0.13497    1.000
    O91      O        0.65870    0.70529    0.11773    1.000
    O92      O        0.24310    0.68962    0.13214    1.000
    O93      O        0.14700    0.57451    0.13746    1.000
    O94      O        0.28480    0.66134    0.03041    1.000
    O95      O        0.03850    0.66881    0.16001    1.000
    O96      O        0.26810    0.88611    0.06980    1.000
    O97      O        0.56540    0.60102    0.11131    1.000
    O98      O        0.40130    0.79444    0.04077    1.000
    O99      O        0.07720    0.65595    0.05786    1.000
    O100     O        0.16560    0.61306    0.22969    1.000
    Na4      Na       0.59020    0.95632    0.18590    1.000
    Mo25     Mo       0.93129    0.64207    0.59519    1.000
    Mo26     Mo       0.04511    0.73699    0.57508    1.000
    Mo27     Mo       0.57113    0.76824    0.60521    1.000
    Mo28     Mo       0.71641    0.89562    0.57576    1.000
    Mo29     Mo       0.65849    0.65950    0.61050    1.000
    Mo30     Mo       0.92002    0.88255    0.56325    1.000
    Co5      Co       0.85188    0.43476    0.70699    1.000
    P17      P        0.85091    0.77389    0.64863    1.000
    P18      P        0.58606    0.89531    0.67818    1.000
    P19      P        0.14694    0.85594    0.64689    1.000
    P20      P        0.83118    0.58549    0.69944    1.000
    O101     O        0.85760    0.63186    0.74358    1.000
    O102     O        0.83110    0.52215    0.72382    1.000
    O103     O        0.71820    0.59947    0.66881    1.000
    O104     O        0.25910    0.88924    0.65172    1.000
    O105     O        0.49510    0.93991    0.68577    1.000
    O106     O        0.91830    0.59016    0.66169    1.000
    O107     O        0.11310    0.84439    0.69908    1.000
    O108     O        0.85500    0.92272    0.61675    1.000
    O109     O        0.05030    0.68674    0.63743    1.000
    O110     O        0.89840    0.78064    0.70571    1.000
    O111     O        0.00980    0.81615    0.52835    1.000
    O112     O        0.61680    0.71267    0.66352    1.000
    O113     O        0.93290    0.79752    0.61386    1.000
    O114     O        0.64980    0.72436    0.55588    1.000
    O115     O        0.82540    0.70464    0.63497    1.000
    O116     O        0.15870    0.79471    0.61773    1.000
    O117     O        0.74310    0.81038    0.63214    1.000
    O118     O        0.64700    0.92549    0.63746    1.000
    O119     O        0.78480    0.83866    0.53041    1.000
    O120     O        0.53850    0.83119    0.66001    1.000
    O121     O        0.76810    0.61389    0.56980    1.000
    O122     O        0.06540    0.89898    0.61131    1.000
    O123     O        0.90130    0.70556    0.54077    1.000
    O124     O        0.57720    0.84405    0.55786    1.000
    O125     O        0.66560    0.88694    0.72969    1.000
    Na5      Na       0.09020    0.54368    0.68590    1.000
    Mo31     Mo       0.43129    0.14207    0.59519    1.000
    Mo32     Mo       0.54511    0.23699    0.57508    1.000
    Mo33     Mo       0.07113    0.26824    0.60521    1.000
    Mo34     Mo       0.21641    0.39562    0.57576    1.000
    Mo35     Mo       0.15849    0.15950    0.61050    1.000
    Mo36     Mo       0.42002    0.38255    0.56325    1.000
    Co6      Co       0.35188    0.93476    0.70699    1.000
    P21      P        0.35091    0.27389    0.64863    1.000
    P22      P        0.08606    0.39531    0.67818    1.000
    P23      P        0.64694    0.35594    0.64689    1.000
    P24      P        0.33118    0.08549    0.69944    1.000
    O126     O        0.35760    0.13186    0.74358    1.000
    O127     O        0.33110    0.02215    0.72382    1.000
    O128     O        0.21820    0.09947    0.66881    1.000
    O129     O        0.75910    0.38924    0.65172    1.000
    O130     O        0.99510    0.43991    0.68577    1.000
    O131     O        0.41830    0.09016    0.66169    1.000
    O132     O        0.61310    0.34439    0.69908    1.000
    O133     O        0.35500    0.42272    0.61675    1.000
    O134     O        0.55030    0.18674    0.63743    1.000
    O135     O        0.39840    0.28064    0.70571    1.000
    O136     O        0.50980    0.31615    0.52835    1.000
    O137     O        0.11680    0.21267    0.66352    1.000
    O138     O        0.43290    0.29752    0.61386    1.000
    O139     O        0.14980    0.22436    0.55588    1.000
    O140     O        0.32540    0.20464    0.63497    1.000
    O141     O        0.65870    0.29471    0.61773    1.000
    O142     O        0.24310    0.31038    0.63214    1.000
    O143     O        0.14700    0.42549    0.63746    1.000
    O144     O        0.28480    0.33866    0.53041    1.000
    O145     O        0.03850    0.33119    0.66001    1.000
    O146     O        0.26810    0.11389    0.56980    1.000
    O147     O        0.56540    0.39898    0.61131    1.000
    O148     O        0.40130    0.20556    0.54077    1.000
    O149     O        0.07720    0.34405    0.55786    1.000
    O150     O        0.16560    0.38694    0.72969    1.000
    Na6      Na       0.59020    0.04368    0.68590    1.000
    Mo37     Mo       0.06871    0.64207    0.90481    1.000
    Mo38     Mo       0.95489    0.73699    0.92492    1.000
    Mo39     Mo       0.42887    0.76824    0.89479    1.000
    Mo40     Mo       0.28359    0.89562    0.92424    1.000
    Mo41     Mo       0.34151    0.65950    0.88950    1.000
    Mo42     Mo       0.07998    0.88255    0.93675    1.000
    Co7      Co       0.14812    0.43476    0.79301    1.000
    P25      P        0.14909    0.77389    0.85137    1.000
    P26      P        0.41394    0.89531    0.82182    1.000
    P27      P        0.85306    0.85594    0.85311    1.000
    P28      P        0.16882    0.58549    0.80056    1.000
    O151     O        0.14240    0.63186    0.75642    1.000
    O152     O        0.16890    0.52215    0.77618    1.000
    O153     O        0.28180    0.59947    0.83119    1.000
    O154     O        0.74090    0.88924    0.84828    1.000
    O155     O        0.50490    0.93991    0.81423    1.000
    O156     O        0.08170    0.59016    0.83831    1.000
    O157     O        0.88690    0.84439    0.80092    1.000
    O158     O        0.14500    0.92272    0.88325    1.000
    O159     O        0.94970    0.68674    0.86257    1.000
    O160     O        0.10160    0.78064    0.79429    1.000
    O161     O        0.99020    0.81615    0.97165    1.000
    O162     O        0.38320    0.71267    0.83648    1.000
    O163     O        0.06710    0.79752    0.88614    1.000
    O164     O        0.35020    0.72436    0.94412    1.000
    O165     O        0.17460    0.70464    0.86503    1.000
    O166     O        0.84130    0.79471    0.88227    1.000
    O167     O        0.25690    0.81038    0.86786    1.000
    O168     O        0.35300    0.92549    0.86254    1.000
    O169     O        0.21520    0.83866    0.96959    1.000
    O170     O        0.46150    0.83119    0.83999    1.000
    O171     O        0.23190    0.61389    0.93020    1.000
    O172     O        0.93460    0.89898    0.88869    1.000
    O173     O        0.09870    0.70556    0.95923    1.000
    O174     O        0.42280    0.84405    0.94214    1.000
    O175     O        0.33440    0.88694    0.77031    1.000
    Na7      Na       0.90980    0.54368    0.81410    1.000
    Mo43     Mo       0.56871    0.14207    0.90481    1.000
    Mo44     Mo       0.45489    0.23699    0.92492    1.000
    Mo45     Mo       0.92887    0.26824    0.89479    1.000
    Mo46     Mo       0.78359    0.39562    0.92424    1.000
    Mo47     Mo       0.84151    0.15950    0.88950    1.000
    Mo48     Mo       0.57998    0.38255    0.93675    1.000
    Co8      Co       0.64812    0.93476    0.79301    1.000
    P29      P        0.64909    0.27389    0.85137    1.000
    P30      P        0.91394    0.39531    0.82182    1.000
    P31      P        0.35306    0.35594    0.85311    1.000
    P32      P        0.66882    0.08549    0.80056    1.000
    O176     O        0.64240    0.13186    0.75642    1.000
    O177     O        0.66890    0.02215    0.77618    1.000
    O178     O        0.78180    0.09947    0.83119    1.000
    O179     O        0.24090    0.38924    0.84828    1.000
    O180     O        0.00490    0.43991    0.81423    1.000
    O181     O        0.58170    0.09016    0.83831    1.000
    O182     O        0.38690    0.34439    0.80092    1.000
    O183     O        0.64500    0.42272    0.88325    1.000
    O184     O        0.44970    0.18674    0.86257    1.000
    O185     O        0.60160    0.28064    0.79429    1.000
    O186     O        0.49020    0.31615    0.97165    1.000
    O187     O        0.88320    0.21267    0.83648    1.000
    O188     O        0.56710    0.29752    0.88614    1.000
    O189     O        0.85020    0.22436    0.94412    1.000
    O190     O        0.67460    0.20464    0.86503    1.000
    O191     O        0.34130    0.29471    0.88227    1.000
    O192     O        0.75690    0.31038    0.86786    1.000
    O193     O        0.85300    0.42549    0.86254    1.000
    O194     O        0.71520    0.33866    0.96959    1.000
    O195     O        0.96150    0.33119    0.83999    1.000
    O196     O        0.73190    0.11389    0.93020    1.000
    O197     O        0.43460    0.39898    0.88869    1.000
    O198     O        0.59870    0.20556    0.95923    1.000
    O199     O        0.92280    0.34405    0.94214    1.000
    O200     O        0.83440    0.38694    0.77031    1.000
    Na8      Na       0.40980    0.04368    0.81410    1.000
    Co9      Co       0.25000    0.25000    0.50000    1.000
    Co10     Co       0.75000    0.25000    0.00000    1.000
    Co11     Co       0.75000    0.75000    0.50000    1.000
    Co12     Co       0.25000    0.75000    0.00000    1.000
    Co13     Co       0.00000    0.15273    0.25000    1.000
    Na9      Na       0.00000    0.30560    0.25000    1.000
    Co14     Co       0.50000    0.65273    0.25000    1.000
    Na10     Na       0.50000    0.80560    0.25000    1.000
    Co15     Co       0.00000    0.84727    0.75000    1.000
    Na11     Na       0.00000    0.69440    0.75000    1.000
    Co16     Co       0.50000    0.34727    0.75000    1.000
    Na12     Na       0.50000    0.19440    0.75000    1.000
