# CIF file generated by openbabel 3.1.0, see https://openbabel.org
data_I
_chemical_name_common 'LIDWIG_clean'
_cell_length_a 12.228
_cell_length_b 13.654
_cell_length_c 16.958
_cell_angle_alpha 77.04
_cell_angle_beta 71.34
_cell_angle_gamma 87.9
_space_group_name_H-M_alt 'P 1'
_space_group_name_Hall 'P 1'
loop_
    _symmetry_equiv_pos_as_xyz
    x,y,z
loop_
    _atom_site_label
    _atom_site_type_symbol
    _atom_site_fract_x
    _atom_site_fract_y
    _atom_site_fract_z
    _atom_site_occupancy
    Co1      Co       0.72538    0.63192    0.88435    1.000
    Co2      Co       0.76628    0.62956    0.63827    1.000
    H1       H        0.57250    0.81350    0.90600    1.000
    H2       H        0.58120    0.97880    0.90820    1.000
    H3       H        0.92550    0.97350    0.82170    1.000
    H4       H        0.90560    0.80830    0.82490    1.000
    H5       H        0.84130    0.13270    0.84620    1.000
    H6       H        0.61060    0.12880    0.93200    1.000
    H7       H        0.86810    0.28160    0.88530    1.000
    H8       H        0.87460    0.44660    0.87870    1.000
    H9       H        0.54250    0.45860    0.92950    1.000
    H10      H        0.52510    0.29290    0.93750    1.000
    H11      H        0.94450    0.62920    0.06780    1.000
    H12      H        0.96790    0.63460    0.19500    1.000
    H13      H        0.60220    0.61810    0.17450    1.000
    H14      H        0.88480    0.64130    0.34780    1.000
    H15      H        0.54150    0.62360    0.45860    1.000
    H16      H        0.51680    0.61180    0.33270    1.000
    H17      H        0.47000    0.62510    0.67630    1.000
    H18      H        0.16330    0.64570    0.91950    1.000
    H19      H        0.34930    0.64780    0.92160    1.000
    H20      H        0.02420    0.64090    0.83840    1.000
    H21      H        0.14700    0.63070    0.59070    1.000
    H22      H        0.33130    0.62640    0.59550    1.000
    H23      H        0.58840    0.79350    0.67030    1.000
    H24      H        0.57060    0.95580    0.68490    1.000
    H25      H        0.91560    0.98610    0.59670    1.000
    H26      H        0.92190    0.81990    0.58760    1.000
    H27      H        0.65790    0.11840    0.67400    1.000
    H28      H        0.88820    0.13990    0.60910    1.000
    H29      H        0.63730    0.26080    0.71910    1.000
    H30      H        0.62650    0.42600    0.72630    1.000
    H31      H        0.94460    0.47760    0.57860    1.000
    H32      H        0.96290    0.31310    0.56730    1.000
    C1       C        0.64450    0.84560    0.89040    1.000
    C2       C        0.64930    0.94510    0.89180    1.000
    C3       C        0.75530    0.99650    0.86880    1.000
    C4       C        0.85230    0.94270    0.84110    1.000
    C5       C        0.83890    0.84350    0.84270    1.000
    C6       C        0.76760    0.10270    0.87140    1.000
    C7       C        0.68400    0.15930    0.90590    1.000
    C8       C        0.69560    0.26560    0.90700    1.000
    C9       C        0.80030    0.31670    0.89270    1.000
    C10      C        0.80330    0.41530    0.88960    1.000
    C11      C        0.60940    0.42210    0.91920    1.000
    C12      C        0.59800    0.32280    0.92360    1.000
    C13      C        0.75490    0.62030    0.02670    1.000
    C14      C        0.76820    0.62380    0.11020    1.000
    C15      C        0.88030    0.62850    0.11570    1.000
    C16      C        0.89380    0.63210    0.19140    1.000
    C17      C        0.79860    0.63210    0.26420    1.000
    C18      C        0.68600    0.62410    0.25980    1.000
    C19      C        0.67550    0.62150    0.17930    1.000
    C20      C        0.81110    0.63650    0.34400    1.000
    C21      C        0.71790    0.63400    0.41470    1.000
    C22      C        0.60550    0.62530    0.41040    1.000
    C23      C        0.59110    0.61930    0.33470    1.000
    C24      C        0.73110    0.63790    0.49950    1.000
    C25      C        0.54990    0.62800    0.80210    1.000
    C26      C        0.42940    0.63290    0.79820    1.000
    C27      C        0.40830    0.62960    0.72450    1.000
    C28      C        0.29430    0.63280    0.72000    1.000
    C29      C        0.20070    0.63860    0.79360    1.000
    C30      C        0.22420    0.64270    0.87040    1.000
    C31      C        0.33500    0.64210    0.87210    1.000
    C32      C        0.08630    0.63860    0.78990    1.000
    C33      C        0.06710    0.63530    0.71540    1.000
    C34      C        0.16050    0.63180    0.64150    1.000
    C35      C        0.27040    0.62980    0.64450    1.000
    C36      C        0.94510    0.63580    0.71300    1.000
    C37      C        0.65560    0.83230    0.65660    1.000
    C38      C        0.64350    0.93060    0.66490    1.000
    C39      C        0.74100    0.99060    0.64320    1.000
    C40      C        0.84730    0.94790    0.61310    1.000
    C41      C        0.85030    0.84720    0.60790    1.000
    C42      C        0.73210    0.09670    0.65150    1.000
    C43      C        0.81370    0.16100    0.63130    1.000
    C44      C        0.80210    0.26600    0.63980    1.000
    C45      C        0.70130    0.30400    0.68870    1.000
    C46      C        0.69480    0.40420    0.69260    1.000
    C47      C        0.88060    0.43380    0.60620    1.000
    C48      C        0.89270    0.33370    0.59950    1.000
    N1       N        0.73840    0.79310    0.86760    1.000
    N2       N        0.70980    0.47190    0.90120    1.000
    N3       N        0.75640    0.78840    0.63030    1.000
    N4       N        0.78220    0.47070    0.65020    1.000
    O1       O        0.84250    0.61740    0.96351    1.000
    O2       O        0.65480    0.62390    0.01931    1.000
    O3       O        0.64620    0.63270    0.56400    1.000
    O4       O        0.83300    0.64780    0.50216    1.000
    O5       O        0.56660    0.65030    0.86662    1.000
    O6       O        0.62710    0.60020    0.74400    1.000
    O7       O        0.86360    0.63990    0.77885    1.000
    O8       O        0.93070    0.63270    0.64366    1.000
    Co3      Co       0.27462    0.36808    0.11565    1.000
    Co4      Co       0.23372    0.37044    0.36173    1.000
    H33      H        0.42750    0.18650    0.09400    1.000
    H34      H        0.41880    0.02120    0.09180    1.000
    H35      H        0.07450    0.02650    0.17830    1.000
    H36      H        0.09440    0.19170    0.17510    1.000
    H37      H        0.15870    0.86730    0.15380    1.000
    H38      H        0.38940    0.87120    0.06800    1.000
    H39      H        0.13190    0.71840    0.11470    1.000
    H40      H        0.12540    0.55340    0.12130    1.000
    H41      H        0.45750    0.54140    0.07050    1.000
    H42      H        0.47490    0.70710    0.06250    1.000
    H43      H        0.05550    0.37080    0.93220    1.000
    H44      H        0.03210    0.36540    0.80500    1.000
    H45      H        0.39780    0.38190    0.82550    1.000
    H46      H        0.11520    0.35870    0.65220    1.000
    H47      H        0.45850    0.37640    0.54140    1.000
    H48      H        0.48320    0.38820    0.66730    1.000
    H49      H        0.53000    0.37490    0.32370    1.000
    H50      H        0.83670    0.35430    0.08050    1.000
    H51      H        0.65070    0.35220    0.07840    1.000
    H52      H        0.97580    0.35910    0.16160    1.000
    H53      H        0.85300    0.36930    0.40930    1.000
    H54      H        0.66870    0.37360    0.40450    1.000
    H55      H        0.41160    0.20650    0.32970    1.000
    H56      H        0.42940    0.04420    0.31510    1.000
    H57      H        0.08440    0.01390    0.40330    1.000
    H58      H        0.07810    0.18010    0.41240    1.000
    H59      H        0.34210    0.88160    0.32600    1.000
    H60      H        0.11180    0.86010    0.39090    1.000
    H61      H        0.36270    0.73920    0.28090    1.000
    H62      H        0.37350    0.57400    0.27370    1.000
    H63      H        0.05540    0.52240    0.42140    1.000
    H64      H        0.03710    0.68690    0.43270    1.000
    C49      C        0.35550    0.15440    0.10960    1.000
    C50      C        0.35070    0.05490    0.10820    1.000
    C51      C        0.24470    0.00350    0.13120    1.000
    C52      C        0.14770    0.05730    0.15890    1.000
    C53      C        0.16110    0.15650    0.15730    1.000
    C54      C        0.23240    0.89730    0.12860    1.000
    C55      C        0.31600    0.84070    0.09410    1.000
    C56      C        0.30440    0.73440    0.09300    1.000
    C57      C        0.19970    0.68330    0.10730    1.000
    C58      C        0.19670    0.58470    0.11040    1.000
    C59      C        0.39060    0.57790    0.08080    1.000
    C60      C        0.40200    0.67720    0.07640    1.000
    C61      C        0.24510    0.37970    0.97330    1.000
    C62      C        0.23180    0.37620    0.88980    1.000
    C63      C        0.11970    0.37150    0.88430    1.000
    C64      C        0.10620    0.36790    0.80860    1.000
    C65      C        0.20140    0.36790    0.73580    1.000
    C66      C        0.31400    0.37590    0.74020    1.000
    C67      C        0.32450    0.37850    0.82070    1.000
    C68      C        0.18890    0.36350    0.65600    1.000
    C69      C        0.28210    0.36600    0.58530    1.000
    C70      C        0.39450    0.37470    0.58960    1.000
    C71      C        0.40890    0.38070    0.66530    1.000
    C72      C        0.26890    0.36210    0.50050    1.000
    C73      C        0.45010    0.37200    0.19790    1.000
    C74      C        0.57060    0.36710    0.20180    1.000
    C75      C        0.59170    0.37040    0.27550    1.000
    C76      C        0.70570    0.36720    0.28000    1.000
    C77      C        0.79930    0.36140    0.20640    1.000
    C78      C        0.77580    0.35730    0.12960    1.000
    C79      C        0.66500    0.35790    0.12790    1.000
    C80      C        0.91370    0.36140    0.21010    1.000
    C81      C        0.93290    0.36470    0.28460    1.000
    C82      C        0.83950    0.36820    0.35850    1.000
    C83      C        0.72960    0.37020    0.35550    1.000
    C84      C        0.05490    0.36420    0.28700    1.000
    C85      C        0.34440    0.16770    0.34340    1.000
    C86      C        0.35650    0.06940    0.33510    1.000
    C87      C        0.25900    0.00940    0.35680    1.000
    C88      C        0.15270    0.05210    0.38690    1.000
    C89      C        0.14970    0.15280    0.39210    1.000
    C90      C        0.26790    0.90330    0.34850    1.000
    C91      C        0.18630    0.83900    0.36870    1.000
    C92      C        0.19790    0.73400    0.36020    1.000
    C93      C        0.29870    0.69600    0.31130    1.000
    C94      C        0.30520    0.59580    0.30740    1.000
    C95      C        0.11940    0.56620    0.39380    1.000
    C96      C        0.10730    0.66630    0.40050    1.000
    N5       N        0.26160    0.20690    0.13240    1.000
    N6       N        0.29020    0.52810    0.09880    1.000
    N7       N        0.24360    0.21160    0.36970    1.000
    N8       N        0.21780    0.52930    0.34980    1.000
    O9       O        0.15750    0.38260    0.03649    1.000
    O10      O        0.34520    0.37610    0.98069    1.000
    O11      O        0.35380    0.36730    0.43600    1.000
    O12      O        0.16700    0.35220    0.49784    1.000
    O13      O        0.43340    0.34970    0.13338    1.000
    O14      O        0.37290    0.39980    0.25600    1.000
    O15      O        0.13640    0.36010    0.22115    1.000
    O16      O        0.06930    0.36730    0.35634    1.000
