# CIF file generated by openbabel 3.1.0, see https://openbabel.org
data_I
_chemical_name_common 'CDLGLU01_clean'
_cell_length_a 7.2556
_cell_length_b 10.7639
_cell_length_c 11.5747
_cell_angle_alpha 90
_cell_angle_beta 90
_cell_angle_gamma 90
_space_group_name_H-M_alt 'P 1'
_space_group_name_Hall 'P 1'
loop_
    _symmetry_equiv_pos_as_xyz
    x,y,z
loop_
    _atom_site_label
    _atom_site_type_symbol
    _atom_site_fract_x
    _atom_site_fract_y
    _atom_site_fract_z
    _atom_site_occupancy
    Cd1      Cd       0.36060    0.68364    0.20906    1.000
    Cd2      Cd       0.86060    0.31636    0.29094    1.000
    Cd3      Cd       0.13940    0.18364    0.79094    1.000
    Cd4      Cd       0.63940    0.81636    0.70906    1.000
    H1       H        0.39400    0.47700    0.47900    1.000
    H2       H        0.12100    0.50300    0.56800    1.000
    H3       H        0.24400    0.61700    0.59200    1.000
    H4       H        0.97700    0.63500    0.41600    1.000
    H5       H        0.09700    0.74900    0.44100    1.000
    H6       H        0.53900    0.60700    0.38900    1.000
    H7       H        0.45900    0.68900    0.44300    1.000
    H8       H        0.89400    0.52300    0.02100    1.000
    H9       H        0.62100    0.49700    0.93200    1.000
    H10      H        0.74400    0.38300    0.90800    1.000
    H11      H        0.47700    0.36500    0.08400    1.000
    H12      H        0.59700    0.25100    0.05900    1.000
    H13      H        0.03900    0.39300    0.11100    1.000
    H14      H        0.95900    0.31100    0.05700    1.000
    H15      H        0.10600    0.97700    0.52100    1.000
    H16      H        0.37900    0.00300    0.43200    1.000
    H17      H        0.25600    0.11700    0.40800    1.000
    H18      H        0.52300    0.13500    0.58400    1.000
    H19      H        0.40300    0.24900    0.55900    1.000
    H20      H        0.96100    0.10700    0.61100    1.000
    H21      H        0.04100    0.18900    0.55700    1.000
    H22      H        0.60600    0.02300    0.97900    1.000
    H23      H        0.87900    0.99700    0.06800    1.000
    H24      H        0.75600    0.88300    0.09200    1.000
    H25      H        0.02300    0.86500    0.91600    1.000
    H26      H        0.90300    0.75100    0.94100    1.000
    H27      H        0.46100    0.89300    0.88900    1.000
    H28      H        0.54100    0.81100    0.94300    1.000
    C1       C        0.21440    0.46210    0.35010    1.000
    C2       C        0.32120    0.53270    0.44320    1.000
    C3       C        0.18580    0.58560    0.53190    1.000
    C4       C        0.04640    0.67480    0.48030    1.000
    C5       C        0.91280    0.72780    0.56890    1.000
    C6       C        0.71440    0.53790    0.14990    1.000
    C7       C        0.82120    0.46730    0.05680    1.000
    C8       C        0.68580    0.41440    0.96810    1.000
    C9       C        0.54640    0.32520    0.01970    1.000
    C10      C        0.41280    0.27220    0.93110    1.000
    C11      C        0.28560    0.96210    0.64990    1.000
    C12      C        0.17880    0.03270    0.55680    1.000
    C13      C        0.31420    0.08560    0.46810    1.000
    C14      C        0.45360    0.17480    0.51970    1.000
    C15      C        0.58720    0.22780    0.43110    1.000
    C16      C        0.78560    0.03790    0.85010    1.000
    C17      C        0.67880    0.96730    0.94320    1.000
    C18      C        0.81420    0.91440    0.03190    1.000
    C19      C        0.95360    0.82520    0.98030    1.000
    C20      C        0.08720    0.77220    0.06890    1.000
    N1       N        0.43950    0.63000    0.39400    1.000
    N2       N        0.93950    0.37000    0.10600    1.000
    N3       N        0.06050    0.13000    0.60600    1.000
    N4       N        0.56050    0.87000    0.89400    1.000
    O1       O        0.22220    0.49760    0.24660    1.000
    O2       O        0.11920    0.37250    0.38530    1.000
    O3       O        0.77560    0.78850    0.53120    1.000
    O4       O        0.93500    0.71280    0.67490    1.000
    O5       O        0.72220    0.50240    0.25340    1.000
    O6       O        0.61920    0.62750    0.11470    1.000
    O7       O        0.27560    0.21150    0.96880    1.000
    O8       O        0.43500    0.28720    0.82510    1.000
    O9       O        0.27780    0.99760    0.75340    1.000
    O10      O        0.38080    0.87250    0.61470    1.000
    O11      O        0.72440    0.28850    0.46880    1.000
    O12      O        0.56500    0.21280    0.32510    1.000
    O13      O        0.77780    0.00240    0.74660    1.000
    O14      O        0.88080    0.12750    0.88530    1.000
    O15      O        0.22440    0.71150    0.03120    1.000
    O16      O        0.06500    0.78720    0.17490    1.000
