# CIF file generated by openbabel 3.1.0, see https://openbabel.org
data_I
_chemical_name_common 'image0'
_cell_length_a 18.087
_cell_length_b 24.867
_cell_length_c 17.611
_cell_angle_alpha 90
_cell_angle_beta 90
_cell_angle_gamma 90
_space_group_name_H-M_alt 'P 1'
_space_group_name_Hall 'P 1'
loop_
    _symmetry_equiv_pos_as_xyz
    x,y,z
loop_
    _atom_site_label
    _atom_site_type_symbol
    _atom_site_fract_x
    _atom_site_fract_y
    _atom_site_fract_z
    _atom_site_occupancy
    Zn1      Zn       0.03642    0.56437    0.18593    1.000
    Zn2      Zn       0.93714    0.31804    0.24036    1.000
    C1       C        0.02470    0.51710    0.34190    1.000
    C2       C        0.83530    0.18390    0.26830    1.000
    C3       C        0.98500    0.43840    0.17860    1.000
    C4       C        0.03800    0.44100    0.97230    1.000
    H1       H        0.08100    0.44730    0.94260    1.000
    C5       C        0.91560    0.41770    0.97890    1.000
    H2       H        0.87040    0.40830    0.95480    1.000
    C6       C        0.09390    0.13260    0.30050    1.000
    C7       C        0.96670    0.39020    0.36750    1.000
    C8       C        0.02960    0.16830    0.29090    1.000
    C9       C        0.97820    0.42230    0.29850    1.000
    C10      C        0.02390    0.22280    0.27600    1.000
    C11      C        0.00410    0.47410    0.28840    1.000
    C12      C        0.91310    0.18920    0.27680    1.000
    C13      C        0.98150    0.43250    0.09440    1.000
    C14      C        0.04370    0.44340    0.04970    1.000
    H3       H        0.08940    0.45250    0.07290    1.000
    C15      C        0.91740    0.41800    0.05770    1.000
    H4       H        0.87470    0.40820    0.08600    1.000
    C16      C        0.71170    0.17750    0.31380    1.000
    H5       H        0.68120    0.17550    0.35760    1.000
    C17      C        0.08020    0.26440    0.26590    1.000
    C18      C        0.79980    0.18390    0.20300    1.000
    H6       H        0.82890    0.18480    0.15810    1.000
    C19      C        0.72140    0.18280    0.19350    1.000
    H7       H        0.70020    0.18630    0.14440    1.000
    C20      C        0.78620    0.18040    0.32390    1.000
    H8       H        0.80430    0.18000    0.37460    1.000
    N1       N        0.96510    0.40000    0.22820    1.000
    N2       N        0.00930    0.48420    0.21180    1.000
    N3       N        0.95960    0.14820    0.29240    1.000
    N4       N        0.95180    0.23640    0.26620    1.000
    N5       N        0.68120    0.17720    0.25010    1.000
    N6       N        0.97220    0.42960    0.93550    1.000
    O1       O        0.94690    0.34220    0.35960    1.000
    O2       O        0.97780    0.41260    0.43200    1.000
    O3       O        0.04500    0.56090    0.31690    1.000
    O4       O        0.01760    0.50740    0.41340    1.000
    H9       H        0.97260    0.50340    0.42390    1.000
    O5       O        0.08060    0.08450    0.30850    1.000
    O6       O        0.15860    0.15350    0.30090    1.000
    O7       O        0.06320    0.31010    0.24620    1.000
    O8       O        0.14870    0.25100    0.27810    1.000
    H10      H        0.17090    0.24800    0.23640    1.000
    Zn3      Zn       0.46358    0.93563    0.18593    1.000
    Zn4      Zn       0.56286    0.18196    0.24036    1.000
    C21      C        0.47530    0.98290    0.34190    1.000
    C22      C        0.66470    0.31610    0.26830    1.000
    C23      C        0.51500    0.06160    0.17860    1.000
    C24      C        0.46200    0.05900    0.97230    1.000
    H11      H        0.41900    0.05270    0.94260    1.000
    C25      C        0.58440    0.08230    0.97890    1.000
    H12      H        0.62960    0.09170    0.95480    1.000
    C26      C        0.40610    0.36740    0.30050    1.000
    C27      C        0.53330    0.10980    0.36750    1.000
    C28      C        0.47040    0.33170    0.29090    1.000
    C29      C        0.52180    0.07770    0.29850    1.000
    C30      C        0.47610    0.27720    0.27600    1.000
    C31      C        0.49590    0.02590    0.28840    1.000
    C32      C        0.58690    0.31080    0.27680    1.000
    C33      C        0.51850    0.06750    0.09440    1.000
    C34      C        0.45630    0.05660    0.04970    1.000
    H13      H        0.41060    0.04750    0.07290    1.000
    C35      C        0.58260    0.08200    0.05770    1.000
    H14      H        0.62530    0.09180    0.08600    1.000
    C36      C        0.78830    0.32250    0.31380    1.000
    H15      H        0.81880    0.32450    0.35760    1.000
    C37      C        0.41980    0.23560    0.26590    1.000
    C38      C        0.70020    0.31610    0.20300    1.000
    H16      H        0.67110    0.31520    0.15810    1.000
    C39      C        0.77860    0.31720    0.19350    1.000
    H17      H        0.79980    0.31370    0.14440    1.000
    C40      C        0.71380    0.31960    0.32390    1.000
    H18      H        0.69570    0.32000    0.37460    1.000
    N7       N        0.53490    0.10000    0.22820    1.000
    N8       N        0.49070    0.01580    0.21180    1.000
    N9       N        0.54040    0.35180    0.29240    1.000
    N10      N        0.54820    0.26360    0.26620    1.000
    N11      N        0.81880    0.32280    0.25010    1.000
    N12      N        0.52780    0.07040    0.93550    1.000
    O9       O        0.55310    0.15780    0.35960    1.000
    O10      O        0.52220    0.08740    0.43200    1.000
    O11      O        0.45500    0.93910    0.31690    1.000
    O12      O        0.48240    0.99260    0.41340    1.000
    H19      H        0.52740    0.99660    0.42390    1.000
    O13      O        0.41940    0.41550    0.30850    1.000
    O14      O        0.34140    0.34650    0.30090    1.000
    O15      O        0.43680    0.18990    0.24620    1.000
    O16      O        0.35130    0.24900    0.27810    1.000
    H20      H        0.32910    0.25200    0.23640    1.000
    Zn5      Zn       0.96358    0.06437    0.31407    1.000
    Zn6      Zn       0.06286    0.81804    0.25964    1.000
    C41      C        0.97530    0.01710    0.15810    1.000
    C42      C        0.16470    0.68390    0.23170    1.000
    C43      C        0.01500    0.93840    0.32140    1.000
    C44      C        0.96200    0.94100    0.52770    1.000
    H21      H        0.91900    0.94730    0.55740    1.000
    C45      C        0.08440    0.91770    0.52110    1.000
    H22      H        0.12960    0.90830    0.54520    1.000
    C46      C        0.90610    0.63260    0.19950    1.000
    C47      C        0.03330    0.89020    0.13250    1.000
    C48      C        0.97040    0.66830    0.20910    1.000
    C49      C        0.02180    0.92230    0.20150    1.000
    C50      C        0.97610    0.72280    0.22400    1.000
    C51      C        0.99590    0.97410    0.21160    1.000
    C52      C        0.08690    0.68920    0.22320    1.000
    C53      C        0.01850    0.93250    0.40560    1.000
    C54      C        0.95630    0.94340    0.45030    1.000
    H23      H        0.91060    0.95250    0.42710    1.000
    C55      C        0.08260    0.91800    0.44230    1.000
    H24      H        0.12530    0.90820    0.41400    1.000
    C56      C        0.28830    0.67750    0.18620    1.000
    H25      H        0.31880    0.67550    0.14240    1.000
    C57      C        0.91980    0.76440    0.23410    1.000
    C58      C        0.20020    0.68390    0.29700    1.000
    H26      H        0.17110    0.68480    0.34190    1.000
    C59      C        0.27860    0.68280    0.30650    1.000
    H27      H        0.29980    0.68630    0.35560    1.000
    C60      C        0.21380    0.68040    0.17610    1.000
    H28      H        0.19570    0.68000    0.12540    1.000
    N13      N        0.03490    0.90000    0.27180    1.000
    N14      N        0.99070    0.98420    0.28820    1.000
    N15      N        0.04040    0.64820    0.20760    1.000
    N16      N        0.04820    0.73640    0.23380    1.000
    N17      N        0.31880    0.67720    0.24990    1.000
    N18      N        0.02780    0.92960    0.56450    1.000
    O17      O        0.05310    0.84220    0.14040    1.000
    O18      O        0.02220    0.91260    0.06800    1.000
    O19      O        0.95500    0.06090    0.18310    1.000
    O20      O        0.98240    0.00740    0.08660    1.000
    H29      H        0.02740    0.00340    0.07610    1.000
    O21      O        0.91940    0.58450    0.19150    1.000
    O22      O        0.84140    0.65350    0.19910    1.000
    O23      O        0.93680    0.81010    0.25380    1.000
    O24      O        0.85130    0.75100    0.22190    1.000
    H30      H        0.82910    0.74800    0.26360    1.000
    Zn7      Zn       0.53642    0.43563    0.31407    1.000
    Zn8      Zn       0.43714    0.68196    0.25964    1.000
    C61      C        0.52470    0.48290    0.15810    1.000
    C62      C        0.33530    0.81610    0.23170    1.000
    C63      C        0.48500    0.56160    0.32140    1.000
    C64      C        0.53800    0.55900    0.52770    1.000
    H31      H        0.58100    0.55270    0.55740    1.000
    C65      C        0.41560    0.58230    0.52110    1.000
    H32      H        0.37040    0.59170    0.54520    1.000
    C66      C        0.59390    0.86740    0.19950    1.000
    C67      C        0.46670    0.60980    0.13250    1.000
    C68      C        0.52960    0.83170    0.20910    1.000
    C69      C        0.47820    0.57770    0.20150    1.000
    C70      C        0.52390    0.77720    0.22400    1.000
    C71      C        0.50410    0.52590    0.21160    1.000
    C72      C        0.41310    0.81080    0.22320    1.000
    C73      C        0.48150    0.56750    0.40560    1.000
    C74      C        0.54370    0.55660    0.45030    1.000
    H33      H        0.58940    0.54750    0.42710    1.000
    C75      C        0.41740    0.58200    0.44230    1.000
    H34      H        0.37470    0.59180    0.41400    1.000
    C76      C        0.21170    0.82250    0.18620    1.000
    H35      H        0.18120    0.82450    0.14240    1.000
    C77      C        0.58020    0.73560    0.23410    1.000
    C78      C        0.29980    0.81610    0.29700    1.000
    H36      H        0.32890    0.81520    0.34190    1.000
    C79      C        0.22140    0.81720    0.30650    1.000
    H37      H        0.20020    0.81370    0.35560    1.000
    C80      C        0.28620    0.81960    0.17610    1.000
    H38      H        0.30430    0.82000    0.12540    1.000
    N19      N        0.46510    0.60000    0.27180    1.000
    N20      N        0.50930    0.51580    0.28820    1.000
    N21      N        0.45960    0.85180    0.20760    1.000
    N22      N        0.45180    0.76360    0.23380    1.000
    N23      N        0.18120    0.82280    0.24990    1.000
    N24      N        0.47220    0.57040    0.56450    1.000
    O25      O        0.44690    0.65780    0.14040    1.000
    O26      O        0.47780    0.58740    0.06800    1.000
    O27      O        0.54500    0.43910    0.18310    1.000
    O28      O        0.51760    0.49260    0.08660    1.000
    H39      H        0.47260    0.49660    0.07610    1.000
    O29      O        0.58060    0.91550    0.19150    1.000
    O30      O        0.65860    0.84650    0.19910    1.000
    O31      O        0.56320    0.68990    0.25380    1.000
    O32      O        0.64870    0.74900    0.22190    1.000
    H40      H        0.67090    0.75200    0.26360    1.000
    Zn9      Zn       0.96358    0.43563    0.81407    1.000
    Zn10     Zn       0.06286    0.68196    0.75964    1.000
    C81      C        0.97530    0.48290    0.65810    1.000
    C82      C        0.16470    0.81610    0.73170    1.000
    C83      C        0.01500    0.56160    0.82140    1.000
    C84      C        0.96200    0.55900    0.02770    1.000
    H41      H        0.91900    0.55270    0.05740    1.000
    C85      C        0.08440    0.58230    0.02110    1.000
    H42      H        0.12960    0.59170    0.04520    1.000
    C86      C        0.90610    0.86740    0.69950    1.000
    C87      C        0.03330    0.60980    0.63250    1.000
    C88      C        0.97040    0.83170    0.70910    1.000
    C89      C        0.02180    0.57770    0.70150    1.000
    C90      C        0.97610    0.77720    0.72400    1.000
    C91      C        0.99590    0.52590    0.71160    1.000
    C92      C        0.08690    0.81080    0.72320    1.000
    C93      C        0.01850    0.56750    0.90560    1.000
    C94      C        0.95630    0.55660    0.95030    1.000
    H43      H        0.91060    0.54750    0.92710    1.000
    C95      C        0.08260    0.58200    0.94230    1.000
    H44      H        0.12530    0.59180    0.91400    1.000
    C96      C        0.28830    0.82250    0.68620    1.000
    H45      H        0.31880    0.82450    0.64240    1.000
    C97      C        0.91980    0.73560    0.73410    1.000
    C98      C        0.20020    0.81610    0.79700    1.000
    H46      H        0.17110    0.81520    0.84190    1.000
    C99      C        0.27860    0.81720    0.80650    1.000
    H47      H        0.29980    0.81370    0.85560    1.000
    C100     C        0.21380    0.81960    0.67610    1.000
    H48      H        0.19570    0.82000    0.62540    1.000
    N25      N        0.03490    0.60000    0.77180    1.000
    N26      N        0.99070    0.51580    0.78820    1.000
    N27      N        0.04040    0.85180    0.70760    1.000
    N28      N        0.04820    0.76360    0.73380    1.000
    N29      N        0.31880    0.82280    0.74990    1.000
    N30      N        0.02780    0.57040    0.06450    1.000
    O33      O        0.05310    0.65780    0.64040    1.000
    O34      O        0.02220    0.58740    0.56800    1.000
    O35      O        0.95500    0.43910    0.68310    1.000
    O36      O        0.98240    0.49260    0.58660    1.000
    H49      H        0.02740    0.49660    0.57610    1.000
    O37      O        0.91940    0.91550    0.69150    1.000
    O38      O        0.84140    0.84650    0.69910    1.000
    O39      O        0.93680    0.68990    0.75380    1.000
    O40      O        0.85130    0.74900    0.72190    1.000
    H50      H        0.82910    0.75200    0.76360    1.000
    Zn11     Zn       0.53642    0.06437    0.81407    1.000
    Zn12     Zn       0.43714    0.81804    0.75964    1.000
    C101     C        0.52470    0.01710    0.65810    1.000
    C102     C        0.33530    0.68390    0.73170    1.000
    C103     C        0.48500    0.93840    0.82140    1.000
    C104     C        0.53800    0.94100    0.02770    1.000
    H51      H        0.58100    0.94730    0.05740    1.000
    C105     C        0.41560    0.91770    0.02110    1.000
    H52      H        0.37040    0.90830    0.04520    1.000
    C106     C        0.59390    0.63260    0.69950    1.000
    C107     C        0.46670    0.89020    0.63250    1.000
    C108     C        0.52960    0.66830    0.70910    1.000
    C109     C        0.47820    0.92230    0.70150    1.000
    C110     C        0.52390    0.72280    0.72400    1.000
    C111     C        0.50410    0.97410    0.71160    1.000
    C112     C        0.41310    0.68920    0.72320    1.000
    C113     C        0.48150    0.93250    0.90560    1.000
    C114     C        0.54370    0.94340    0.95030    1.000
    H53      H        0.58940    0.95250    0.92710    1.000
    C115     C        0.41740    0.91800    0.94230    1.000
    H54      H        0.37470    0.90820    0.91400    1.000
    C116     C        0.21170    0.67750    0.68620    1.000
    H55      H        0.18120    0.67550    0.64240    1.000
    C117     C        0.58020    0.76440    0.73410    1.000
    C118     C        0.29980    0.68390    0.79700    1.000
    H56      H        0.32890    0.68480    0.84190    1.000
    C119     C        0.22140    0.68280    0.80650    1.000
    H57      H        0.20020    0.68630    0.85560    1.000
    C120     C        0.28620    0.68040    0.67610    1.000
    H58      H        0.30430    0.68000    0.62540    1.000
    N31      N        0.46510    0.90000    0.77180    1.000
    N32      N        0.50930    0.98420    0.78820    1.000
    N33      N        0.45960    0.64820    0.70760    1.000
    N34      N        0.45180    0.73640    0.73380    1.000
    N35      N        0.18120    0.67720    0.74990    1.000
    N36      N        0.47220    0.92960    0.06450    1.000
    O41      O        0.44690    0.84220    0.64040    1.000
    O42      O        0.47780    0.91260    0.56800    1.000
    O43      O        0.54500    0.06090    0.68310    1.000
    O44      O        0.51760    0.00740    0.58660    1.000
    H59      H        0.47260    0.00340    0.57610    1.000
    O45      O        0.58060    0.58450    0.69150    1.000
    O46      O        0.65860    0.65350    0.69910    1.000
    O47      O        0.56320    0.81010    0.75380    1.000
    O48      O        0.64870    0.75100    0.72190    1.000
    H60      H        0.67090    0.74800    0.76360    1.000
    Zn13     Zn       0.03642    0.93563    0.68593    1.000
    Zn14     Zn       0.93714    0.18196    0.74036    1.000
    C121     C        0.02470    0.98290    0.84190    1.000
    C122     C        0.83530    0.31610    0.76830    1.000
    C123     C        0.98500    0.06160    0.67860    1.000
    C124     C        0.03800    0.05900    0.47230    1.000
    H61      H        0.08100    0.05270    0.44260    1.000
    C125     C        0.91560    0.08230    0.47890    1.000
    H62      H        0.87040    0.09170    0.45480    1.000
    C126     C        0.09390    0.36740    0.80050    1.000
    C127     C        0.96670    0.10980    0.86750    1.000
    C128     C        0.02960    0.33170    0.79090    1.000
    C129     C        0.97820    0.07770    0.79850    1.000
    C130     C        0.02390    0.27720    0.77600    1.000
    C131     C        0.00410    0.02590    0.78840    1.000
    C132     C        0.91310    0.31080    0.77680    1.000
    C133     C        0.98150    0.06750    0.59440    1.000
    C134     C        0.04370    0.05660    0.54970    1.000
    H63      H        0.08940    0.04750    0.57290    1.000
    C135     C        0.91740    0.08200    0.55770    1.000
    H64      H        0.87470    0.09180    0.58600    1.000
    C136     C        0.71170    0.32250    0.81380    1.000
    H65      H        0.68120    0.32450    0.85760    1.000
    C137     C        0.08020    0.23560    0.76590    1.000
    C138     C        0.79980    0.31610    0.70300    1.000
    H66      H        0.82890    0.31520    0.65810    1.000
    C139     C        0.72140    0.31720    0.69350    1.000
    H67      H        0.70020    0.31370    0.64440    1.000
    C140     C        0.78620    0.31960    0.82390    1.000
    H68      H        0.80430    0.32000    0.87460    1.000
    N37      N        0.96510    0.10000    0.72820    1.000
    N38      N        0.00930    0.01580    0.71180    1.000
    N39      N        0.95960    0.35180    0.79240    1.000
    N40      N        0.95180    0.26360    0.76620    1.000
    N41      N        0.68120    0.32280    0.75010    1.000
    N42      N        0.97220    0.07040    0.43550    1.000
    O49      O        0.94690    0.15780    0.85960    1.000
    O50      O        0.97780    0.08740    0.93200    1.000
    O51      O        0.04500    0.93910    0.81690    1.000
    O52      O        0.01760    0.99260    0.91340    1.000
    H69      H        0.97260    0.99660    0.92390    1.000
    O53      O        0.08060    0.41550    0.80850    1.000
    O54      O        0.15860    0.34650    0.80090    1.000
    O55      O        0.06320    0.18990    0.74620    1.000
    O56      O        0.14870    0.24900    0.77810    1.000
    H70      H        0.17090    0.25200    0.73640    1.000
    Zn15     Zn       0.46358    0.56437    0.68593    1.000
    Zn16     Zn       0.56286    0.31804    0.74036    1.000
    C141     C        0.47530    0.51710    0.84190    1.000
    C142     C        0.66470    0.18390    0.76830    1.000
    C143     C        0.51500    0.43840    0.67860    1.000
    C144     C        0.46200    0.44100    0.47230    1.000
    H71      H        0.41900    0.44730    0.44260    1.000
    C145     C        0.58440    0.41770    0.47890    1.000
    H72      H        0.62960    0.40830    0.45480    1.000
    C146     C        0.40610    0.13260    0.80050    1.000
    C147     C        0.53330    0.39020    0.86750    1.000
    C148     C        0.47040    0.16830    0.79090    1.000
    C149     C        0.52180    0.42230    0.79850    1.000
    C150     C        0.47610    0.22280    0.77600    1.000
    C151     C        0.49590    0.47410    0.78840    1.000
    C152     C        0.58690    0.18920    0.77680    1.000
    C153     C        0.51850    0.43250    0.59440    1.000
    C154     C        0.45630    0.44340    0.54970    1.000
    H73      H        0.41060    0.45250    0.57290    1.000
    C155     C        0.58260    0.41800    0.55770    1.000
    H74      H        0.62530    0.40820    0.58600    1.000
    C156     C        0.78830    0.17750    0.81380    1.000
    H75      H        0.81880    0.17550    0.85760    1.000
    C157     C        0.41980    0.26440    0.76590    1.000
    C158     C        0.70020    0.18390    0.70300    1.000
    H76      H        0.67110    0.18480    0.65810    1.000
    C159     C        0.77860    0.18280    0.69350    1.000
    H77      H        0.79980    0.18630    0.64440    1.000
    C160     C        0.71380    0.18040    0.82390    1.000
    H78      H        0.69570    0.18000    0.87460    1.000
    N43      N        0.53490    0.40000    0.72820    1.000
    N44      N        0.49070    0.48420    0.71180    1.000
    N45      N        0.54040    0.14820    0.79240    1.000
    N46      N        0.54820    0.23640    0.76620    1.000
    N47      N        0.81880    0.17720    0.75010    1.000
    N48      N        0.52780    0.42960    0.43550    1.000
    O57      O        0.55310    0.34220    0.85960    1.000
    O58      O        0.52220    0.41260    0.93200    1.000
    O59      O        0.45500    0.56090    0.81690    1.000
    O60      O        0.48240    0.50740    0.91340    1.000
    H79      H        0.52740    0.50340    0.92390    1.000
    O61      O        0.41940    0.08450    0.80850    1.000
    O62      O        0.34140    0.15350    0.80090    1.000
    O63      O        0.43680    0.31010    0.74620    1.000
    O64      O        0.35130    0.25100    0.77810    1.000
    H80      H        0.32910    0.24800    0.73640    1.000
