# CIF file generated by openbabel 3.1.0, see https://openbabel.org
data_I
_chemical_name_common 'ja4015666_si_003_clean'
_cell_length_a 9.915
_cell_length_b 18.65
_cell_length_c 20.341
_cell_angle_alpha 88.702
_cell_angle_beta 84.514
_cell_angle_gamma 85.703
_space_group_name_H-M_alt 'P 1'
_space_group_name_Hall 'P 1'
loop_
    _symmetry_equiv_pos_as_xyz
    x,y,z
loop_
    _atom_site_label
    _atom_site_type_symbol
    _atom_site_fract_x
    _atom_site_fract_y
    _atom_site_fract_z
    _atom_site_occupancy
    Cd1      Cd       0.09998    0.54052    0.04446    1.000
    Cd2      Cd       0.38519    0.04800    0.46244    1.000
    Cd3      Cd       0.61481    0.95200    0.53756    1.000
    Cd4      Cd       0.90002    0.45948    0.95554    1.000
    H1       H        0.19780    0.80250    0.81110    1.000
    H2       H        0.06570    0.38690    0.21500    1.000
    H3       H        0.60020    0.18710    0.78390    1.000
    H4       H        0.03760    0.30260    0.29730    1.000
    H5       H        0.89440    0.81880    0.67520    1.000
    H6       H        0.93430    0.61310    0.78500    1.000
    H7       H        0.70590    0.17170    0.30630    1.000
    H8       H        0.80220    0.19750    0.18890    1.000
    H9       H        0.71540    0.70510    0.29030    1.000
    H10      H        0.44260    0.44530    0.93320    1.000
    H11      H        0.12130    0.94430    0.55260    1.000
    H12      H        0.23720    0.32210    0.82390    1.000
    H13      H        0.96240    0.69740    0.70270    1.000
    H14      H        0.83700    0.28000    0.10560    1.000
    H15      H        0.35330    0.69040    0.19710    1.000
    H16      H        0.55740    0.55470    0.06680    1.000
    H17      H        0.29520    0.21180    0.62670    1.000
    H18      H        0.87870    0.05570    0.44740    1.000
    H19      H        0.10560    0.18120    0.32480    1.000
    H20      H        0.76280    0.67790    0.17610    1.000
    H21      H        0.64670    0.30960    0.80290    1.000
    H22      H        0.39210    0.89610    0.29850    1.000
    H23      H        0.29410    0.82830    0.69370    1.000
    H24      H        0.28460    0.29490    0.70970    1.000
    H25      H        0.60790    0.10390    0.70150    1.000
    H26      H        0.70480    0.78820    0.37330    1.000
    H27      H        0.16300    0.72000    0.89440    1.000
    H28      H        0.39980    0.81290    0.21610    1.000
    C1       C        0.00380    0.70230    0.74190    1.000
    C2       C        0.97860    0.39530    0.09530    1.000
    C3       C        0.43810    0.61910    0.12940    1.000
    C4       C        0.14200    0.76480    0.80590    1.000
    C5       C        0.22770    0.88750    0.61750    1.000
    C6       C        0.02140    0.60470    0.90470    1.000
    C7       C        0.43620    0.67060    0.17670    1.000
    C8       C        0.30710    0.59390    0.11160    1.000
    C9       C        0.68140    0.61190    0.11430    1.000
    C10      C        0.81070    0.58090    0.07990    1.000
    C11      C        0.08000    0.75990    0.74760    1.000
    C12      C        0.97860    0.83680    0.66130    1.000
    C13      C        0.13670    0.08790    0.42240    1.000
    C14      C        0.46360    0.09680    0.60050    1.000
    C15      C        0.56380    0.32940    0.82330    1.000
    C16      C        0.64740    0.74310    0.29220    1.000
    C17      C        0.31990    0.33650    0.83630    1.000
    C18      C        0.35260    0.25690    0.70780    1.000
    C19      C        0.54280    0.14320    0.70270    1.000
    C20      C        0.45240    0.15070    0.65530    1.000
    C21      C        0.85800    0.23520    0.19410    1.000
    C22      C        0.44140    0.40990    0.90110    1.000
    C23      C        0.11270    0.91150    0.58730    1.000
    C24      C        0.99620    0.29770    0.25810    1.000
    C25      C        0.12190    0.71520    0.85510    1.000
    C26      C        0.90720    0.18610    0.30690    1.000
    C27      C        0.55960    0.69320    0.19400    1.000
    C28      C        0.36350    0.91160    0.58920    1.000
    C29      C        0.01200    0.11330    0.39140    1.000
    C30      C        0.98620    0.65220    0.79100    1.000
    C31      C        0.86330    0.91210    0.57760    1.000
    C32      C        0.55860    0.59010    0.09890    1.000
    C33      C        0.77230    0.11250    0.38250    1.000
    C34      C        0.44040    0.30680    0.80600    1.000
    C35      C        0.78300    0.15850    0.32870    1.000
    C36      C        0.01380    0.34780    0.20900    1.000
    C37      C        0.46140    0.80700    0.24840    1.000
    C38      C        0.53860    0.19300    0.75160    1.000
    C39      C        0.54760    0.84930    0.34470    1.000
    C40      C        0.69290    0.40610    0.88840    1.000
    C41      C        0.64180    0.79330    0.34150    1.000
    C42      C        0.09280    0.81390    0.69310    1.000
    C43      C        0.88730    0.08850    0.41270    1.000
    C44      C        0.63650    0.08840    0.41080    1.000
    C45      C        0.18930    0.41910    0.92010    1.000
    C46      C        0.45720    0.85680    0.29730    1.000
    C47      C        0.87810    0.28480    0.14490    1.000
    C48      C        0.44460    0.25180    0.75380    1.000
    C49      C        0.53640    0.90320    0.39950    1.000
    C50      C        0.98800    0.88670    0.60860    1.000
    C51      C        0.04410    0.65840    0.84960    1.000
    C52      C        0.56190    0.38090    0.87060    1.000
    C53      C        0.21700    0.84150    0.67130    1.000
    C54      C        0.95590    0.34160    0.15040    1.000
    C55      C        0.02140    0.16320    0.33870    1.000
    C56      C        0.92000    0.24010    0.25240    1.000
    C57      C        0.35820    0.20670    0.65850    1.000
    C58      C        0.68010    0.66350    0.16370    1.000
    C59      C        0.55540    0.74820    0.24620    1.000
    C60      C        0.31860    0.38810    0.88570    1.000
    O1       O        0.79760    0.40020    0.84590    1.000
    O2       O        0.06650    0.44070    0.10210    1.000
    O3       O        0.19750    0.46190    0.96480    1.000
    O4       O        0.90670    0.39030    0.04700    1.000
    O5       O        0.36920    0.94970    0.53780    1.000
    O6       O        0.46780    0.88950    0.61540    1.000
    O7       O        0.77030    0.86750    0.57700    1.000
    O8       O        0.31310    0.55290    0.06300    1.000
    O9       O        0.09330    0.60970    0.95300    1.000
    O10      O        0.80250    0.53810    0.03520    1.000
    O11      O        0.19730    0.62510    0.12670    1.000
    O12      O        0.80270    0.37490    0.87330    1.000
    O13      O        0.53220    0.11050    0.38460    1.000
    O14      O        0.22970    0.13250    0.42300    1.000
    O15      O        0.20240    0.59980    0.15410    1.000
    O16      O        0.08020    0.40300    0.90150    1.000
    O17      O        0.68690    0.44710    0.93700    1.000
    O18      O        0.62120    0.89180    0.44200    1.000
    O19      O        0.14910    0.02970    0.44720    1.000
    O20      O        0.93350    0.55930    0.89790    1.000
    O21      O        0.55700    0.04850    0.60080    1.000
    O22      O        0.63080    0.05030    0.46220    1.000
    O23      O        0.91980    0.59700    0.09850    1.000
    O24      O        0.37880    0.10820    0.55800    1.000
    O25      O        0.85090    0.97030    0.55280    1.000
    O26      O        0.44300    0.95150    0.39920    1.000
