# CIF file generated by openbabel 3.1.0, see https://openbabel.org
data_I
_chemical_name_common 'image0'
_cell_length_a 10.8625
_cell_length_b 14.4803
_cell_length_c 15.3077
_cell_angle_alpha 113.142
_cell_angle_beta 90.457
_cell_angle_gamma 107.818
_space_group_name_H-M_alt 'P 1'
_space_group_name_Hall 'P 1'
loop_
    _symmetry_equiv_pos_as_xyz
    x,y,z
loop_
    _atom_site_label
    _atom_site_type_symbol
    _atom_site_fract_x
    _atom_site_fract_y
    _atom_site_fract_z
    _atom_site_occupancy
    Ag1      Ag       0.54670    0.97226    0.61090    1.000
    Ag2      Ag       0.08430    0.57711    0.29875    1.000
    Ag3      Ag       0.97850    0.33827    0.04735    1.000
    Ag4      Ag       0.02720    0.12321    0.11188    1.000
    Ag5      Ag       0.80240    0.19825    0.77172    1.000
    C1       C        0.30520    0.76030    0.47150    1.000
    C2       C        0.31260    0.69400    0.52360    1.000
    C3       C        0.30290    0.58800    0.47250    1.000
    H1       H        0.29320    0.56020    0.40580    1.000
    C4       C        0.30700    0.52220    0.51800    1.000
    H2       H        0.30100    0.45150    0.48310    1.000
    C5       C        0.32100    0.56700    0.61600    1.000
    H3       H        0.32210    0.52420    0.64820    1.000
    C6       C        0.33300    0.67300    0.66910    1.000
    H4       H        0.34360    0.70070    0.73580    1.000
    C7       C        0.32780    0.73440    0.62270    1.000
    H5       H        0.33480    0.80520    0.65820    1.000
    C8       C        0.97290    0.28140    0.31460    1.000
    C9       C        0.96020    0.21340    0.36550    1.000
    C10      C        0.01910    0.25410    0.45830    1.000
    H6       H        0.07070    0.32550    0.48900    1.000
    C11      C        0.00100    0.18800    0.50720    1.000
    H7       H        0.04170    0.21540    0.57020    1.000
    C12      C        0.92600    0.08270    0.46280    1.000
    H8       H        0.91280    0.03940    0.49580    1.000
    C13      C        0.87000    0.04180    0.37000    1.000
    H9       H        0.82000    0.96980    0.33960    1.000
    C14      C        0.88450    0.10610    0.31810    1.000
    H10      H        0.84520    0.07760    0.25470    1.000
    C15      C        0.84330    0.01370    0.81920    1.000
    C16      C        0.77800    0.92990    0.72400    1.000
    C17      C        0.71010    0.82710    0.71900    1.000
    H11      H        0.70680    0.81520    0.77450    1.000
    C18      C        0.64860    0.74430    0.63100    1.000
    H12      H        0.60690    0.67600    0.62710    1.000
    C19      C        0.64930    0.76300    0.54940    1.000
    H13      H        0.60460    0.70830    0.49100    1.000
    C20      C        0.71730    0.86450    0.55470    1.000
    H14      H        0.71960    0.87650    0.49920    1.000
    C21      C        0.78140    0.94750    0.64200    1.000
    H15      H        0.82650    0.01490    0.64500    1.000
    N1       N        0.37340    0.86400    0.50190    1.000
    N2       N        0.34200    0.89120    0.43450    1.000
    N3       N        0.25640    0.80830    0.36660    1.000
    N4       N        0.23100    0.72440    0.38870    1.000
    N5       N        0.98790    0.38600    0.35650    1.000
    N6       N        0.98800    0.41670    0.28360    1.000
    N7       N        0.97320    0.33450    0.20260    1.000
    N8       N        0.96430    0.24860    0.22020    1.000
    N9       N        0.89430    0.99900    0.89020    1.000
    N10      N        0.93620    0.09500    0.96440    1.000
    N11      N        0.91300    0.16660    0.94050    1.000
    N12      N        0.85510    0.11750    0.84880    1.000
    Ag6      Ag       0.45330    0.02774    0.38910    1.000
    Ag7      Ag       0.91570    0.42289    0.70125    1.000
    Ag8      Ag       0.02150    0.66173    0.95265    1.000
    Ag9      Ag       0.97280    0.87679    0.88812    1.000
    Ag10     Ag       0.19760    0.80175    0.22828    1.000
    C22      C        0.69480    0.23970    0.52850    1.000
    C23      C        0.68740    0.30600    0.47640    1.000
    C24      C        0.69710    0.41200    0.52750    1.000
    H16      H        0.70680    0.43980    0.59420    1.000
    C25      C        0.69300    0.47780    0.48200    1.000
    H17      H        0.69900    0.54850    0.51690    1.000
    C26      C        0.67900    0.43300    0.38400    1.000
    H18      H        0.67790    0.47580    0.35180    1.000
    C27      C        0.66700    0.32700    0.33090    1.000
    H19      H        0.65640    0.29930    0.26420    1.000
    C28      C        0.67220    0.26560    0.37730    1.000
    H20      H        0.66520    0.19480    0.34180    1.000
    C29      C        0.02710    0.71860    0.68540    1.000
    C30      C        0.03980    0.78660    0.63450    1.000
    C31      C        0.98090    0.74590    0.54170    1.000
    H21      H        0.92930    0.67450    0.51100    1.000
    C32      C        0.99900    0.81200    0.49280    1.000
    H22      H        0.95830    0.78460    0.42980    1.000
    C33      C        0.07400    0.91730    0.53720    1.000
    H23      H        0.08720    0.96060    0.50420    1.000
    C34      C        0.13000    0.95820    0.63000    1.000
    H24      H        0.18000    0.03020    0.66040    1.000
    C35      C        0.11550    0.89390    0.68190    1.000
    H25      H        0.15480    0.92240    0.74530    1.000
    C36      C        0.15670    0.98630    0.18080    1.000
    C37      C        0.22200    0.07010    0.27600    1.000
    C38      C        0.28990    0.17290    0.28100    1.000
    H26      H        0.29320    0.18480    0.22550    1.000
    C39      C        0.35140    0.25570    0.36900    1.000
    H27      H        0.39310    0.32400    0.37290    1.000
    C40      C        0.35070    0.23700    0.45060    1.000
    H28      H        0.39540    0.29170    0.50900    1.000
    C41      C        0.28270    0.13550    0.44530    1.000
    H29      H        0.28040    0.12350    0.50080    1.000
    C42      C        0.21860    0.05250    0.35800    1.000
    H30      H        0.17350    0.98510    0.35500    1.000
    N13      N        0.62660    0.13600    0.49810    1.000
    N14      N        0.65800    0.10880    0.56550    1.000
    N15      N        0.74360    0.19170    0.63340    1.000
    N16      N        0.76900    0.27560    0.61130    1.000
    N17      N        0.01210    0.61400    0.64350    1.000
    N18      N        0.01200    0.58330    0.71640    1.000
    N19      N        0.02680    0.66550    0.79740    1.000
    N20      N        0.03570    0.75140    0.77980    1.000
    N21      N        0.10570    0.00100    0.10980    1.000
    N22      N        0.06380    0.90500    0.03560    1.000
    N23      N        0.08700    0.83340    0.05950    1.000
    N24      N        0.14490    0.88250    0.15120    1.000
    Ag11     Ag       0.00000    0.50000    0.50000    1.000
