# CIF file generated by openbabel 3.1.0, see https://openbabel.org
data_I
_chemical_name_common 'MITGUR_clean'
_cell_length_a 7.1693
_cell_length_b 10.7246
_cell_length_c 17.158
_cell_angle_alpha 97.109
_cell_angle_beta 90
_cell_angle_gamma 90
_space_group_name_H-M_alt 'P 1'
_space_group_name_Hall 'P 1'
loop_
    _symmetry_equiv_pos_as_xyz
    x,y,z
loop_
    _atom_site_label
    _atom_site_type_symbol
    _atom_site_fract_x
    _atom_site_fract_y
    _atom_site_fract_z
    _atom_site_occupancy
    Tb1      Tb       0.47995    0.82429    0.25327    1.000
    Tb2      Tb       0.97995    0.67571    0.24673    1.000
    Tb3      Tb       0.52005    0.17571    0.74673    1.000
    Tb4      Tb       0.02005    0.32429    0.75327    1.000
    H1       H        0.68450    0.99010    0.51880    1.000
    H2       H        0.35020    0.66450    0.45040    1.000
    H3       H        0.18450    0.50990    0.98120    1.000
    H4       H        0.85020    0.83550    0.04960    1.000
    H5       H        0.31550    0.00990    0.48120    1.000
    H6       H        0.64980    0.33550    0.54960    1.000
    H7       H        0.81550    0.49010    0.01880    1.000
    H8       H        0.14980    0.16450    0.95040    1.000
    C1       C        0.81270    0.99310    0.51110    1.000
    C2       C        0.88200    0.95050    0.43780    1.000
    C3       C        0.07580    0.95940    0.42590    1.000
    C4       C        0.74850    0.90490    0.37330    1.000
    C5       C        0.17240    0.91400    0.35120    1.000
    C6       C        0.41080    0.59840    0.47010    1.000
    C7       C        0.57170    0.54800    0.43230    1.000
    C8       C        0.66110    0.44690    0.46390    1.000
    C9       C        0.64750    0.61090    0.36410    1.000
    C10      C        0.81940    0.37970    0.42220    1.000
    C11      C        0.31270    0.50690    0.98890    1.000
    C12      C        0.38200    0.54950    0.06220    1.000
    C13      C        0.57580    0.54060    0.07410    1.000
    C14      C        0.24850    0.59510    0.12670    1.000
    C15      C        0.67240    0.58600    0.14880    1.000
    C16      C        0.91080    0.90160    0.02990    1.000
    C17      C        0.07170    0.95200    0.06770    1.000
    C18      C        0.16110    0.05310    0.03610    1.000
    C19      C        0.14750    0.88910    0.13590    1.000
    C20      C        0.31940    0.12030    0.07780    1.000
    C21      C        0.18730    0.00690    0.48890    1.000
    C22      C        0.11800    0.04950    0.56220    1.000
    C23      C        0.92420    0.04060    0.57410    1.000
    C24      C        0.25150    0.09510    0.62670    1.000
    C25      C        0.82760    0.08600    0.64880    1.000
    C26      C        0.58920    0.40160    0.52990    1.000
    C27      C        0.42830    0.45200    0.56770    1.000
    C28      C        0.33890    0.55310    0.53610    1.000
    C29      C        0.35250    0.38910    0.63590    1.000
    C30      C        0.18060    0.62030    0.57780    1.000
    C31      C        0.68730    0.49310    0.01110    1.000
    C32      C        0.61800    0.45050    0.93780    1.000
    C33      C        0.42420    0.45940    0.92590    1.000
    C34      C        0.75150    0.40490    0.87330    1.000
    C35      C        0.32760    0.41400    0.85120    1.000
    C36      C        0.08920    0.09840    0.97010    1.000
    C37      C        0.92830    0.04800    0.93230    1.000
    C38      C        0.83890    0.94690    0.96390    1.000
    C39      C        0.85250    0.11090    0.86410    1.000
    C40      C        0.68060    0.87970    0.92220    1.000
    O1       O        0.57610    0.91640    0.38610    1.000
    O2       O        0.80960    0.85350    0.30830    1.000
    O3       O        0.19200    0.79490    0.32990    1.000
    O4       O        0.25210    0.99380    0.31500    1.000
    O5       O        0.52880    0.65480    0.32370    1.000
    O6       O        0.82120    0.61390    0.35680    1.000
    O7       O        0.81940    0.34800    0.35050    1.000
    O8       O        0.95600    0.34970    0.46770    1.000
    O9       O        0.07610    0.58360    0.11390    1.000
    O10      O        0.30960    0.64650    0.19170    1.000
    O11      O        0.69200    0.70510    0.17010    1.000
    O12      O        0.75210    0.50620    0.18500    1.000
    O13      O        0.02880    0.84520    0.17630    1.000
    O14      O        0.32120    0.88610    0.14320    1.000
    O15      O        0.31940    0.15200    0.14950    1.000
    O16      O        0.45600    0.15030    0.03230    1.000
    O17      O        0.42390    0.08360    0.61390    1.000
    O18      O        0.19040    0.14650    0.69170    1.000
    O19      O        0.80800    0.20510    0.67010    1.000
    O20      O        0.74790    0.00620    0.68500    1.000
    O21      O        0.47120    0.34520    0.67630    1.000
    O22      O        0.17880    0.38610    0.64320    1.000
    O23      O        0.18060    0.65200    0.64950    1.000
    O24      O        0.04400    0.65030    0.53230    1.000
    O25      O        0.92390    0.41640    0.88610    1.000
    O26      O        0.69040    0.35350    0.80830    1.000
    O27      O        0.30800    0.29490    0.82990    1.000
    O28      O        0.24790    0.49380    0.81500    1.000
    O29      O        0.97120    0.15480    0.82370    1.000
    O30      O        0.67880    0.11390    0.85680    1.000
    O31      O        0.68060    0.84800    0.85050    1.000
    O32      O        0.54400    0.84970    0.96770    1.000
