# CIF file generated by openbabel 3.1.0, see https://openbabel.org
data_I
_chemical_name_common 'image0'
_cell_length_a 23.7046
_cell_length_b 15.7987
_cell_length_c 16.2398
_cell_angle_alpha 90
_cell_angle_beta 124.204
_cell_angle_gamma 90
_space_group_name_H-M_alt 'P 1'
_space_group_name_Hall 'P 1'
loop_
    _symmetry_equiv_pos_as_xyz
    x,y,z
loop_
    _atom_site_label
    _atom_site_type_symbol
    _atom_site_fract_x
    _atom_site_fract_y
    _atom_site_fract_z
    _atom_site_occupancy
    Pr1      Pr       0.81085    0.82930    0.62146    1.000
    C1       C        0.12780    0.46310    0.32250    1.000
    C2       C        0.13990    0.54500    0.35910    1.000
    H1       H        0.17660    0.55620    0.42590    1.000
    C3       C        0.09830    0.61080    0.29800    1.000
    C4       C        0.04410    0.59470    0.20010    1.000
    C5       C        0.03110    0.51200    0.16530    1.000
    H2       H        0.99330    0.50020    0.09950    1.000
    C6       C        0.07260    0.44690    0.22570    1.000
    H3       H        0.06340    0.39050    0.20110    1.000
    C7       C        0.01800    0.69030    0.07290    1.000
    C8       C        0.08370    0.68700    0.09580    1.000
    H4       H        0.11910    0.66100    0.15570    1.000
    C9       C        0.09766    0.72210    0.03060    1.000
    C10      C        0.04522    0.75810    0.94120    1.000
    H5       H        0.05430    0.78020    0.89530    1.000
    C11      C        0.97928    0.76130    0.91950    1.000
    C12      C        0.96551    0.72760    0.98580    1.000
    H6       H        0.92080    0.73030    0.97150    1.000
    C13      C        0.17580    0.39240    0.38680    1.000
    C14      C        0.17012    0.71990    0.06080    1.000
    C15      C        0.92194    0.79870    0.82330    1.000
    N1       N        0.11450    0.69590    0.34040    1.000
    O1       O        0.16684    0.32285    0.34360    1.000
    O2       O        0.22042    0.40942    0.47600    1.000
    O3       O        0.15100    0.70230    0.43150    1.000
    O4       O        0.09180    0.75690    0.28540    1.000
    O5       O        0.21266    0.67820    0.13690    1.000
    O6       O        0.18734    0.75944    0.01050    1.000
    O7       O        0.93390    0.82467    0.76070    1.000
    O8       O        0.86339    0.80175    0.80648    1.000
    O9       O        0.00074    0.65720    0.13540    1.000
    Pr2      Pr       0.31085    0.32930    0.62146    1.000
    C16      C        0.62780    0.96310    0.32250    1.000
    C17      C        0.63990    0.04500    0.35910    1.000
    H7       H        0.67660    0.05620    0.42590    1.000
    C18      C        0.59830    0.11080    0.29800    1.000
    C19      C        0.54410    0.09470    0.20010    1.000
    C20      C        0.53110    0.01200    0.16530    1.000
    H8       H        0.49330    0.00020    0.09950    1.000
    C21      C        0.57260    0.94690    0.22570    1.000
    H9       H        0.56340    0.89050    0.20110    1.000
    C22      C        0.51800    0.19030    0.07290    1.000
    C23      C        0.58370    0.18700    0.09580    1.000
    H10      H        0.61910    0.16100    0.15570    1.000
    C24      C        0.59766    0.22210    0.03060    1.000
    C25      C        0.54522    0.25810    0.94120    1.000
    H11      H        0.55430    0.28020    0.89530    1.000
    C26      C        0.47928    0.26130    0.91950    1.000
    C27      C        0.46551    0.22760    0.98580    1.000
    H12      H        0.42080    0.23030    0.97150    1.000
    C28      C        0.67580    0.89240    0.38680    1.000
    C29      C        0.67012    0.21990    0.06080    1.000
    C30      C        0.42194    0.29870    0.82330    1.000
    N2       N        0.61450    0.19590    0.34040    1.000
    O10      O        0.66684    0.82285    0.34360    1.000
    O11      O        0.72042    0.90942    0.47600    1.000
    O12      O        0.65100    0.20230    0.43150    1.000
    O13      O        0.59180    0.25690    0.28540    1.000
    O14      O        0.71266    0.17820    0.13690    1.000
    O15      O        0.68734    0.25944    0.01050    1.000
    O16      O        0.43390    0.32467    0.76070    1.000
    O17      O        0.36339    0.30175    0.80648    1.000
    O18      O        0.50074    0.15720    0.13540    1.000
    Pr3      Pr       0.18915    0.82930    0.87854    1.000
    C31      C        0.87220    0.46310    0.17750    1.000
    C32      C        0.86010    0.54500    0.14090    1.000
    H13      H        0.82340    0.55620    0.07410    1.000
    C33      C        0.90170    0.61080    0.20200    1.000
    C34      C        0.95590    0.59470    0.29990    1.000
    C35      C        0.96890    0.51200    0.33470    1.000
    H14      H        0.00670    0.50020    0.40050    1.000
    C36      C        0.92740    0.44690    0.27430    1.000
    H15      H        0.93660    0.39050    0.29890    1.000
    C37      C        0.98200    0.69030    0.42710    1.000
    C38      C        0.91630    0.68700    0.40420    1.000
    H16      H        0.88090    0.66100    0.34430    1.000
    C39      C        0.90234    0.72210    0.46940    1.000
    C40      C        0.95478    0.75810    0.55880    1.000
    H17      H        0.94570    0.78020    0.60470    1.000
    C41      C        0.02072    0.76130    0.58050    1.000
    C42      C        0.03449    0.72760    0.51420    1.000
    H18      H        0.07920    0.73030    0.52850    1.000
    C43      C        0.82420    0.39240    0.11320    1.000
    C44      C        0.82988    0.71990    0.43920    1.000
    C45      C        0.07806    0.79870    0.67670    1.000
    N3       N        0.88550    0.69590    0.15960    1.000
    O19      O        0.83316    0.32285    0.15640    1.000
    O20      O        0.77958    0.40942    0.02400    1.000
    O21      O        0.84900    0.70230    0.06850    1.000
    O22      O        0.90820    0.75690    0.21460    1.000
    O23      O        0.78734    0.67820    0.36310    1.000
    O24      O        0.81266    0.75944    0.48950    1.000
    O25      O        0.06610    0.82467    0.73930    1.000
    O26      O        0.13661    0.80175    0.69352    1.000
    O27      O        0.99926    0.65720    0.36460    1.000
    Pr4      Pr       0.68915    0.32930    0.87854    1.000
    C46      C        0.37220    0.96310    0.17750    1.000
    C47      C        0.36010    0.04500    0.14090    1.000
    H19      H        0.32340    0.05620    0.07410    1.000
    C48      C        0.40170    0.11080    0.20200    1.000
    C49      C        0.45590    0.09470    0.29990    1.000
    C50      C        0.46890    0.01200    0.33470    1.000
    H20      H        0.50670    0.00020    0.40050    1.000
    C51      C        0.42740    0.94690    0.27430    1.000
    H21      H        0.43660    0.89050    0.29890    1.000
    C52      C        0.48200    0.19030    0.42710    1.000
    C53      C        0.41630    0.18700    0.40420    1.000
    H22      H        0.38090    0.16100    0.34430    1.000
    C54      C        0.40234    0.22210    0.46940    1.000
    C55      C        0.45478    0.25810    0.55880    1.000
    H23      H        0.44570    0.28020    0.60470    1.000
    C56      C        0.52072    0.26130    0.58050    1.000
    C57      C        0.53449    0.22760    0.51420    1.000
    H24      H        0.57920    0.23030    0.52850    1.000
    C58      C        0.32420    0.89240    0.11320    1.000
    C59      C        0.32988    0.21990    0.43920    1.000
    C60      C        0.57806    0.29870    0.67670    1.000
    N4       N        0.38550    0.19590    0.15960    1.000
    O28      O        0.33316    0.82285    0.15640    1.000
    O29      O        0.27958    0.90942    0.02400    1.000
    O30      O        0.34900    0.20230    0.06850    1.000
    O31      O        0.40820    0.25690    0.21460    1.000
    O32      O        0.28734    0.17820    0.36310    1.000
    O33      O        0.31266    0.25944    0.48950    1.000
    O34      O        0.56610    0.32467    0.73930    1.000
    O35      O        0.63661    0.30175    0.69352    1.000
    O36      O        0.49926    0.15720    0.36460    1.000
    Pr5      Pr       0.18915    0.17070    0.37854    1.000
    C61      C        0.87220    0.53690    0.67750    1.000
    C62      C        0.86010    0.45500    0.64090    1.000
    H25      H        0.82340    0.44380    0.57410    1.000
    C63      C        0.90170    0.38920    0.70200    1.000
    C64      C        0.95590    0.40530    0.79990    1.000
    C65      C        0.96890    0.48800    0.83470    1.000
    H26      H        0.00670    0.49980    0.90050    1.000
    C66      C        0.92740    0.55310    0.77430    1.000
    H27      H        0.93660    0.60950    0.79890    1.000
    C67      C        0.98200    0.30970    0.92710    1.000
    C68      C        0.91630    0.31300    0.90420    1.000
    H28      H        0.88090    0.33900    0.84430    1.000
    C69      C        0.90234    0.27790    0.96940    1.000
    C70      C        0.95478    0.24190    0.05880    1.000
    H29      H        0.94570    0.21980    0.10470    1.000
    C71      C        0.02072    0.23870    0.08050    1.000
    C72      C        0.03449    0.27240    0.01420    1.000
    H30      H        0.07920    0.26970    0.02850    1.000
    C73      C        0.82420    0.60760    0.61320    1.000
    C74      C        0.82988    0.28010    0.93920    1.000
    C75      C        0.07806    0.20130    0.17670    1.000
    N5       N        0.88550    0.30410    0.65960    1.000
    O37      O        0.83316    0.67715    0.65640    1.000
    O38      O        0.77958    0.59058    0.52400    1.000
    O39      O        0.84900    0.29770    0.56850    1.000
    O40      O        0.90820    0.24310    0.71460    1.000
    O41      O        0.78734    0.32180    0.86310    1.000
    O42      O        0.81266    0.24056    0.98950    1.000
    O43      O        0.06610    0.17533    0.23930    1.000
    O44      O        0.13661    0.19825    0.19352    1.000
    O45      O        0.99926    0.34280    0.86460    1.000
    Pr6      Pr       0.68915    0.67070    0.37854    1.000
    C76      C        0.37220    0.03690    0.67750    1.000
    C77      C        0.36010    0.95500    0.64090    1.000
    H31      H        0.32340    0.94380    0.57410    1.000
    C78      C        0.40170    0.88920    0.70200    1.000
    C79      C        0.45590    0.90530    0.79990    1.000
    C80      C        0.46890    0.98800    0.83470    1.000
    H32      H        0.50670    0.99980    0.90050    1.000
    C81      C        0.42740    0.05310    0.77430    1.000
    H33      H        0.43660    0.10950    0.79890    1.000
    C82      C        0.48200    0.80970    0.92710    1.000
    C83      C        0.41630    0.81300    0.90420    1.000
    H34      H        0.38090    0.83900    0.84430    1.000
    C84      C        0.40234    0.77790    0.96940    1.000
    C85      C        0.45478    0.74190    0.05880    1.000
    H35      H        0.44570    0.71980    0.10470    1.000
    C86      C        0.52072    0.73870    0.08050    1.000
    C87      C        0.53449    0.77240    0.01420    1.000
    H36      H        0.57920    0.76970    0.02850    1.000
    C88      C        0.32420    0.10760    0.61320    1.000
    C89      C        0.32988    0.78010    0.93920    1.000
    C90      C        0.57806    0.70130    0.17670    1.000
    N6       N        0.38550    0.80410    0.65960    1.000
    O46      O        0.33316    0.17715    0.65640    1.000
    O47      O        0.27958    0.09058    0.52400    1.000
    O48      O        0.34900    0.79770    0.56850    1.000
    O49      O        0.40820    0.74310    0.71460    1.000
    O50      O        0.28734    0.82180    0.86310    1.000
    O51      O        0.31266    0.74056    0.98950    1.000
    O52      O        0.56610    0.67533    0.23930    1.000
    O53      O        0.63661    0.69825    0.19352    1.000
    O54      O        0.49926    0.84280    0.86460    1.000
    Pr7      Pr       0.81085    0.17070    0.12146    1.000
    C91      C        0.12780    0.53690    0.82250    1.000
    C92      C        0.13990    0.45500    0.85910    1.000
    H37      H        0.17660    0.44380    0.92590    1.000
    C93      C        0.09830    0.38920    0.79800    1.000
    C94      C        0.04410    0.40530    0.70010    1.000
    C95      C        0.03110    0.48800    0.66530    1.000
    H38      H        0.99330    0.49980    0.59950    1.000
    C96      C        0.07260    0.55310    0.72570    1.000
    H39      H        0.06340    0.60950    0.70110    1.000
    C97      C        0.01800    0.30970    0.57290    1.000
    C98      C        0.08370    0.31300    0.59580    1.000
    H40      H        0.11910    0.33900    0.65570    1.000
    C99      C        0.09766    0.27790    0.53060    1.000
    C100     C        0.04522    0.24190    0.44120    1.000
    H41      H        0.05430    0.21980    0.39530    1.000
    C101     C        0.97928    0.23870    0.41950    1.000
    C102     C        0.96551    0.27240    0.48580    1.000
    H42      H        0.92080    0.26970    0.47150    1.000
    C103     C        0.17580    0.60760    0.88680    1.000
    C104     C        0.17012    0.28010    0.56080    1.000
    C105     C        0.92194    0.20130    0.32330    1.000
    N7       N        0.11450    0.30410    0.84040    1.000
    O55      O        0.16684    0.67715    0.84360    1.000
    O56      O        0.22042    0.59058    0.97600    1.000
    O57      O        0.15100    0.29770    0.93150    1.000
    O58      O        0.09180    0.24310    0.78540    1.000
    O59      O        0.21266    0.32180    0.63690    1.000
    O60      O        0.18734    0.24056    0.51050    1.000
    O61      O        0.93390    0.17533    0.26070    1.000
    O62      O        0.86339    0.19825    0.30648    1.000
    O63      O        0.00074    0.34280    0.63540    1.000
    Pr8      Pr       0.31085    0.67070    0.12146    1.000
    C106     C        0.62780    0.03690    0.82250    1.000
    C107     C        0.63990    0.95500    0.85910    1.000
    H43      H        0.67660    0.94380    0.92590    1.000
    C108     C        0.59830    0.88920    0.79800    1.000
    C109     C        0.54410    0.90530    0.70010    1.000
    C110     C        0.53110    0.98800    0.66530    1.000
    H44      H        0.49330    0.99980    0.59950    1.000
    C111     C        0.57260    0.05310    0.72570    1.000
    H45      H        0.56340    0.10950    0.70110    1.000
    C112     C        0.51800    0.80970    0.57290    1.000
    C113     C        0.58370    0.81300    0.59580    1.000
    H46      H        0.61910    0.83900    0.65570    1.000
    C114     C        0.59766    0.77790    0.53060    1.000
    C115     C        0.54522    0.74190    0.44120    1.000
    H47      H        0.55430    0.71980    0.39530    1.000
    C116     C        0.47928    0.73870    0.41950    1.000
    C117     C        0.46551    0.77240    0.48580    1.000
    H48      H        0.42080    0.76970    0.47150    1.000
    C118     C        0.67580    0.10760    0.88680    1.000
    C119     C        0.67012    0.78010    0.56080    1.000
    C120     C        0.42194    0.70130    0.32330    1.000
    N8       N        0.61450    0.80410    0.84040    1.000
    O64      O        0.66684    0.17715    0.84360    1.000
    O65      O        0.72042    0.09058    0.97600    1.000
    O66      O        0.65100    0.79770    0.93150    1.000
    O67      O        0.59180    0.74310    0.78540    1.000
    O68      O        0.71266    0.82180    0.63690    1.000
    O69      O        0.68734    0.74056    0.51050    1.000
    O70      O        0.43390    0.67533    0.26070    1.000
    O71      O        0.36339    0.69825    0.30648    1.000
    O72      O        0.50074    0.84280    0.63540    1.000
