# CIF file generated by openbabel 3.1.0, see https://openbabel.org
data_I
_chemical_name_common 'HIFVOI_clean'
_cell_length_a 17.058
_cell_length_b 19.073
_cell_length_c 19.073
_cell_angle_alpha 90
_cell_angle_beta 90
_cell_angle_gamma 90
_space_group_name_H-M_alt 'P 1'
_space_group_name_Hall 'P 1'
loop_
    _symmetry_equiv_pos_as_xyz
    x,y,z
loop_
    _atom_site_label
    _atom_site_type_symbol
    _atom_site_fract_x
    _atom_site_fract_y
    _atom_site_fract_z
    _atom_site_occupancy
    Zn1      Zn       0.82358    0.88612    0.33491    1.000
    Zn2      Zn       0.82358    0.11388    0.66509    1.000
    Zn3      Zn       0.32358    0.16509    0.38612    1.000
    Zn4      Zn       0.32358    0.83491    0.61388    1.000
    Zn5      Zn       0.67642    0.61388    0.83491    1.000
    Zn6      Zn       0.67642    0.38612    0.16509    1.000
    Zn7      Zn       0.17642    0.33491    0.88612    1.000
    Zn8      Zn       0.17642    0.66509    0.11388    1.000
    Zn9      Zn       0.17642    0.11388    0.66509    1.000
    Zn10     Zn       0.17642    0.88612    0.33491    1.000
    Zn11     Zn       0.67642    0.83491    0.61388    1.000
    Zn12     Zn       0.67642    0.16509    0.38612    1.000
    Zn13     Zn       0.32358    0.38612    0.16509    1.000
    Zn14     Zn       0.32358    0.61388    0.83491    1.000
    Zn15     Zn       0.82358    0.66509    0.11388    1.000
    Zn16     Zn       0.82358    0.33491    0.88612    1.000
    H1       H        0.92860    0.77030    0.40630    1.000
    H2       H        0.69140    0.87570    0.21510    1.000
    H3       H        0.85690    0.02270    0.23780    1.000
    H4       H        0.71150    0.75520    0.36590    1.000
    H5       H        0.71810    0.00290    0.39720    1.000
    H6       H        0.92860    0.22970    0.59370    1.000
    H7       H        0.69140    0.12430    0.78490    1.000
    H8       H        0.85690    0.97730    0.76220    1.000
    H9       H        0.71150    0.24480    0.63410    1.000
    H10      H        0.71810    0.99710    0.60280    1.000
    H11      H        0.42860    0.09370    0.27030    1.000
    H12      H        0.19140    0.28490    0.37570    1.000
    H13      H        0.35690    0.26220    0.52270    1.000
    H14      H        0.21150    0.13410    0.25520    1.000
    H15      H        0.21810    0.10280    0.50290    1.000
    H16      H        0.42860    0.90630    0.72970    1.000
    H17      H        0.19140    0.71510    0.62430    1.000
    H18      H        0.35690    0.73780    0.47730    1.000
    H19      H        0.21150    0.86590    0.74480    1.000
    H20      H        0.21810    0.89720    0.49710    1.000
    H21      H        0.57140    0.72970    0.90630    1.000
    H22      H        0.80860    0.62430    0.71510    1.000
    H23      H        0.64310    0.47730    0.73780    1.000
    H24      H        0.78850    0.74480    0.86590    1.000
    H25      H        0.78190    0.49710    0.89720    1.000
    H26      H        0.57140    0.27030    0.09370    1.000
    H27      H        0.80860    0.37570    0.28490    1.000
    H28      H        0.64310    0.52270    0.26220    1.000
    H29      H        0.78850    0.25520    0.13410    1.000
    H30      H        0.78190    0.50290    0.10280    1.000
    H31      H        0.07140    0.40630    0.77030    1.000
    H32      H        0.30860    0.21510    0.87570    1.000
    H33      H        0.14310    0.23780    0.02270    1.000
    H34      H        0.28850    0.36590    0.75520    1.000
    H35      H        0.28190    0.39720    0.00290    1.000
    H36      H        0.07140    0.59370    0.22970    1.000
    H37      H        0.30860    0.78490    0.12430    1.000
    H38      H        0.14310    0.76220    0.97730    1.000
    H39      H        0.28850    0.63410    0.24480    1.000
    H40      H        0.28190    0.60280    0.99710    1.000
    H41      H        0.07140    0.22970    0.59370    1.000
    H42      H        0.30860    0.12430    0.78490    1.000
    H43      H        0.14310    0.97730    0.76220    1.000
    H44      H        0.28850    0.24480    0.63410    1.000
    H45      H        0.28190    0.99710    0.60280    1.000
    H46      H        0.07140    0.77030    0.40630    1.000
    H47      H        0.30860    0.87570    0.21510    1.000
    H48      H        0.14310    0.02270    0.23780    1.000
    H49      H        0.28850    0.75520    0.36590    1.000
    H50      H        0.28190    0.00290    0.39720    1.000
    H51      H        0.57140    0.90630    0.72970    1.000
    H52      H        0.80860    0.71510    0.62430    1.000
    H53      H        0.64310    0.73780    0.47730    1.000
    H54      H        0.78850    0.86590    0.74480    1.000
    H55      H        0.78190    0.89720    0.49710    1.000
    H56      H        0.57140    0.09370    0.27030    1.000
    H57      H        0.80860    0.28490    0.37570    1.000
    H58      H        0.64310    0.26220    0.52270    1.000
    H59      H        0.78850    0.13410    0.25520    1.000
    H60      H        0.78190    0.10280    0.50290    1.000
    H61      H        0.42860    0.27030    0.09370    1.000
    H62      H        0.19140    0.37570    0.28490    1.000
    H63      H        0.35690    0.52270    0.26220    1.000
    H64      H        0.21150    0.25520    0.13410    1.000
    H65      H        0.21810    0.50290    0.10280    1.000
    H66      H        0.42860    0.72970    0.90630    1.000
    H67      H        0.19140    0.62430    0.71510    1.000
    H68      H        0.35690    0.47730    0.73780    1.000
    H69      H        0.21150    0.74480    0.86590    1.000
    H70      H        0.21810    0.49710    0.89720    1.000
    H71      H        0.92860    0.59370    0.22970    1.000
    H72      H        0.69140    0.78490    0.12430    1.000
    H73      H        0.85690    0.76220    0.97730    1.000
    H74      H        0.71150    0.63410    0.24480    1.000
    H75      H        0.71810    0.60280    0.99710    1.000
    H76      H        0.92860    0.40630    0.77030    1.000
    H77      H        0.69140    0.21510    0.87570    1.000
    H78      H        0.85690    0.23780    0.02270    1.000
    H79      H        0.71150    0.36590    0.75520    1.000
    H80      H        0.71810    0.39720    0.00290    1.000
    H81      H        0.00000    0.93190    0.30310    1.000
    H82      H        0.00000    0.06810    0.69690    1.000
    H83      H        0.50000    0.19690    0.43190    1.000
    H84      H        0.50000    0.80310    0.56810    1.000
    H85      H        0.50000    0.56810    0.80310    1.000
    H86      H        0.50000    0.43190    0.19690    1.000
    H87      H        0.00000    0.30310    0.93190    1.000
    H88      H        0.00000    0.69690    0.06810    1.000
    H89      H        0.87320    0.75570    0.24430    1.000
    H90      H        0.87320    0.24430    0.75570    1.000
    H91      H        0.37320    0.25570    0.25570    1.000
    H92      H        0.37320    0.74430    0.74430    1.000
    H93      H        0.62680    0.74430    0.74430    1.000
    H94      H        0.62680    0.25570    0.25570    1.000
    H95      H        0.12680    0.24430    0.75570    1.000
    H96      H        0.12680    0.75570    0.24430    1.000
    C1       C        0.96020    0.80580    0.38860    1.000
    C2       C        0.73070    0.84270    0.20780    1.000
    C3       C        0.82230    0.03270    0.27420    1.000
    C4       C        0.71400    0.78460    0.40470    1.000
    C5       C        0.74890    0.02310    0.36240    1.000
    C6       C        0.96020    0.19420    0.61140    1.000
    C7       C        0.73070    0.15730    0.79220    1.000
    C8       C        0.82230    0.96730    0.72580    1.000
    C9       C        0.71400    0.21540    0.59530    1.000
    C10      C        0.74890    0.97690    0.63760    1.000
    C11      C        0.46020    0.11140    0.30580    1.000
    C12      C        0.23070    0.29220    0.34270    1.000
    C13      C        0.32230    0.22580    0.53270    1.000
    C14      C        0.21400    0.09530    0.28460    1.000
    C15      C        0.24890    0.13760    0.52310    1.000
    C16      C        0.46020    0.88860    0.69420    1.000
    C17      C        0.23070    0.70780    0.65730    1.000
    C18      C        0.32230    0.77420    0.46730    1.000
    C19      C        0.21400    0.90470    0.71540    1.000
    C20      C        0.24890    0.86240    0.47690    1.000
    C21      C        0.53980    0.69420    0.88860    1.000
    C22      C        0.76930    0.65730    0.70780    1.000
    C23      C        0.67770    0.46730    0.77420    1.000
    C24      C        0.78600    0.71540    0.90470    1.000
    C25      C        0.75110    0.47690    0.86240    1.000
    C26      C        0.53980    0.30580    0.11140    1.000
    C27      C        0.76930    0.34270    0.29220    1.000
    C28      C        0.67770    0.53270    0.22580    1.000
    C29      C        0.78600    0.28460    0.09530    1.000
    C30      C        0.75110    0.52310    0.13760    1.000
    C31      C        0.03980    0.38860    0.80580    1.000
    C32      C        0.26930    0.20780    0.84270    1.000
    C33      C        0.17770    0.27420    0.03270    1.000
    C34      C        0.28600    0.40470    0.78460    1.000
    C35      C        0.25110    0.36240    0.02310    1.000
    C36      C        0.03980    0.61140    0.19420    1.000
    C37      C        0.26930    0.79220    0.15730    1.000
    C38      C        0.17770    0.72580    0.96730    1.000
    C39      C        0.28600    0.59530    0.21540    1.000
    C40      C        0.25110    0.63760    0.97690    1.000
    C41      C        0.03980    0.19420    0.61140    1.000
    C42      C        0.26930    0.15730    0.79220    1.000
    C43      C        0.17770    0.96730    0.72580    1.000
    C44      C        0.28600    0.21540    0.59530    1.000
    C45      C        0.25110    0.97690    0.63760    1.000
    C46      C        0.03980    0.80580    0.38860    1.000
    C47      C        0.26930    0.84270    0.20780    1.000
    C48      C        0.17770    0.03270    0.27420    1.000
    C49      C        0.28600    0.78460    0.40470    1.000
    C50      C        0.25110    0.02310    0.36240    1.000
    C51      C        0.53980    0.88860    0.69420    1.000
    C52      C        0.76930    0.70780    0.65730    1.000
    C53      C        0.67770    0.77420    0.46730    1.000
    C54      C        0.78600    0.90470    0.71540    1.000
    C55      C        0.75110    0.86240    0.47690    1.000
    C56      C        0.53980    0.11140    0.30580    1.000
    C57      C        0.76930    0.29220    0.34270    1.000
    C58      C        0.67770    0.22580    0.53270    1.000
    C59      C        0.78600    0.09530    0.28460    1.000
    C60      C        0.75110    0.13760    0.52310    1.000
    C61      C        0.46020    0.30580    0.11140    1.000
    C62      C        0.23070    0.34270    0.29220    1.000
    C63      C        0.32230    0.53270    0.22580    1.000
    C64      C        0.21400    0.28460    0.09530    1.000
    C65      C        0.24890    0.52310    0.13760    1.000
    C66      C        0.46020    0.69420    0.88860    1.000
    C67      C        0.23070    0.65730    0.70780    1.000
    C68      C        0.32230    0.46730    0.77420    1.000
    C69      C        0.21400    0.71540    0.90470    1.000
    C70      C        0.24890    0.47690    0.86240    1.000
    C71      C        0.96020    0.61140    0.19420    1.000
    C72      C        0.73070    0.79220    0.15730    1.000
    C73      C        0.82230    0.72580    0.96730    1.000
    C74      C        0.71400    0.59530    0.21540    1.000
    C75      C        0.74890    0.63760    0.97690    1.000
    C76      C        0.96020    0.38860    0.80580    1.000
    C77      C        0.73070    0.20780    0.84270    1.000
    C78      C        0.82230    0.27420    0.03270    1.000
    C79      C        0.71400    0.40470    0.78460    1.000
    C80      C        0.74890    0.36240    0.02310    1.000
    C81      C        0.00000    0.89460    0.33450    1.000
    C82      C        0.00000    0.10540    0.66550    1.000
    C83      C        0.50000    0.16550    0.39460    1.000
    C84      C        0.50000    0.83450    0.60540    1.000
    C85      C        0.50000    0.60540    0.83450    1.000
    C86      C        0.50000    0.39460    0.16550    1.000
    C87      C        0.00000    0.33450    0.89460    1.000
    C88      C        0.00000    0.66550    0.10540    1.000
    C89      C        0.83150    0.77790    0.22210    1.000
    C90      C        0.83150    0.22210    0.77790    1.000
    C91      C        0.33150    0.27790    0.27790    1.000
    C92      C        0.33150    0.72210    0.72210    1.000
    C93      C        0.66850    0.72210    0.72210    1.000
    C94      C        0.66850    0.27790    0.27790    1.000
    C95      C        0.16850    0.22210    0.77790    1.000
    C96      C        0.16850    0.77790    0.22210    1.000
    N1       N        0.93430    0.86580    0.35870    1.000
    N2       N        0.79870    0.83660    0.24610    1.000
    N3       N        0.80040    0.98700    0.32500    1.000
    N4       N        0.75480    0.84600    0.40920    1.000
    N5       N        0.93430    0.13420    0.64130    1.000
    N6       N        0.79870    0.16340    0.75390    1.000
    N7       N        0.80040    0.01300    0.67500    1.000
    N8       N        0.75480    0.15400    0.59080    1.000
    N9       N        0.43430    0.14130    0.36580    1.000
    N10      N        0.29870    0.25390    0.33660    1.000
    N11      N        0.30040    0.17500    0.48700    1.000
    N12      N        0.25480    0.09080    0.34600    1.000
    N13      N        0.43430    0.85870    0.63420    1.000
    N14      N        0.29870    0.74610    0.66340    1.000
    N15      N        0.30040    0.82500    0.51300    1.000
    N16      N        0.25480    0.90920    0.65400    1.000
    N17      N        0.56570    0.63420    0.85870    1.000
    N18      N        0.70130    0.66340    0.74610    1.000
    N19      N        0.69960    0.51300    0.82500    1.000
    N20      N        0.74520    0.65400    0.90920    1.000
    N21      N        0.56570    0.36580    0.14130    1.000
    N22      N        0.70130    0.33660    0.25390    1.000
    N23      N        0.69960    0.48700    0.17500    1.000
    N24      N        0.74520    0.34600    0.09080    1.000
    N25      N        0.06570    0.35870    0.86580    1.000
    N26      N        0.20130    0.24610    0.83660    1.000
    N27      N        0.19960    0.32500    0.98700    1.000
    N28      N        0.24520    0.40920    0.84600    1.000
    N29      N        0.06570    0.64130    0.13420    1.000
    N30      N        0.20130    0.75390    0.16340    1.000
    N31      N        0.19960    0.67500    0.01300    1.000
    N32      N        0.24520    0.59080    0.15400    1.000
    N33      N        0.06570    0.13420    0.64130    1.000
    N34      N        0.20130    0.16340    0.75390    1.000
    N35      N        0.19960    0.01300    0.67500    1.000
    N36      N        0.24520    0.15400    0.59080    1.000
    N37      N        0.06570    0.86580    0.35870    1.000
    N38      N        0.20130    0.83660    0.24610    1.000
    N39      N        0.19960    0.98700    0.32500    1.000
    N40      N        0.24520    0.84600    0.40920    1.000
    N41      N        0.56570    0.85870    0.63420    1.000
    N42      N        0.70130    0.74610    0.66340    1.000
    N43      N        0.69960    0.82500    0.51300    1.000
    N44      N        0.74520    0.90920    0.65400    1.000
    N45      N        0.56570    0.14130    0.36580    1.000
    N46      N        0.70130    0.25390    0.33660    1.000
    N47      N        0.69960    0.17500    0.48700    1.000
    N48      N        0.74520    0.09080    0.34600    1.000
    N49      N        0.43430    0.36580    0.14130    1.000
    N50      N        0.29870    0.33660    0.25390    1.000
    N51      N        0.30040    0.48700    0.17500    1.000
    N52      N        0.25480    0.34600    0.09080    1.000
    N53      N        0.43430    0.63420    0.85870    1.000
    N54      N        0.29870    0.66340    0.74610    1.000
    N55      N        0.30040    0.51300    0.82500    1.000
    N56      N        0.25480    0.65400    0.90920    1.000
    N57      N        0.93430    0.64130    0.13420    1.000
    N58      N        0.79870    0.75390    0.16340    1.000
    N59      N        0.80040    0.67500    0.01300    1.000
    N60      N        0.75480    0.59080    0.15400    1.000
    N61      N        0.93430    0.35870    0.86580    1.000
    N62      N        0.79870    0.24610    0.83660    1.000
    N63      N        0.80040    0.32500    0.98700    1.000
    N64      N        0.75480    0.40920    0.84600    1.000
