# CIF file generated by openbabel 3.1.0, see https://openbabel.org
data_I
_chemical_name_common 'KANDIO_clean'
_cell_length_a 10.885
_cell_length_b 10.93
_cell_length_c 18.518
_cell_angle_alpha 87.42
_cell_angle_beta 84.99
_cell_angle_gamma 70.57
_space_group_name_H-M_alt 'P 1'
_space_group_name_Hall 'P 1'
loop_
    _symmetry_equiv_pos_as_xyz
    x,y,z
loop_
    _atom_site_label
    _atom_site_type_symbol
    _atom_site_fract_x
    _atom_site_fract_y
    _atom_site_fract_z
    _atom_site_occupancy
    Zn1      Zn       0.34332    0.24176    0.57692    1.000
    Zn2      Zn       0.31858    0.23809    0.73963    1.000
    H1       H        0.76010    0.21030    0.55170    1.000
    H2       H        0.95950    0.24350    0.55730    1.000
    H3       H        0.90920    0.24980    0.77460    1.000
    H4       H        0.71150    0.21410    0.76910    1.000
    H5       H        0.36060    0.63320    0.54490    1.000
    H6       H        0.36650    0.84350    0.54600    1.000
    H7       H        0.32150    0.83940    0.76490    1.000
    H8       H        0.30900    0.62880    0.76300    1.000
    H9       H        0.35010    0.06950    0.45380    1.000
    H10      H        0.33860    0.07540    0.33180    1.000
    H11      H        0.30440    0.45470    0.33060    1.000
    H12      H        0.31670    0.43760    0.45370    1.000
    H13      H        0.44790    0.08700    0.21780    1.000
    H14      H        0.44210    0.08460    0.09450    1.000
    H15      H        0.50600    0.16140    0.98090    1.000
    H16      H        0.50180    0.15300    0.85680    1.000
    H17      H        0.12890    0.34690    0.86600    1.000
    H18      H        0.12190    0.36360    0.98990    1.000
    C1       C        0.71380    0.21240    0.65990    1.000
    C2       C        0.78910    0.21900    0.59630    1.000
    C3       C        0.90900    0.23880    0.59980    1.000
    C4       C        0.95320    0.25140    0.66580    1.000
    C5       C        0.87940    0.24230    0.73000    1.000
    C6       C        0.76050    0.22170    0.72650    1.000
    C7       C        0.58030    0.19870    0.65700    1.000
    C8       C        0.08460    0.27080    0.66910    1.000
    C9       C        0.33200    0.61250    0.65430    1.000
    C10      C        0.35120    0.67530    0.58870    1.000
    C11      C        0.35580    0.80090    0.58940    1.000
    C12      C        0.34470    0.86340    0.65500    1.000
    C13      C        0.32790    0.79880    0.72100    1.000
    C14      C        0.32100    0.67190    0.71990    1.000
    C15      C        0.32090    0.47740    0.65360    1.000
    C16      C        0.34920    0.00050    0.65560    1.000
    C17      C        0.34070    0.14750    0.42880    1.000
    C18      C        0.33470    0.15020    0.35530    1.000
    C19      C        0.32260    0.26480    0.31510    1.000
    C20      C        0.31430    0.37560    0.35440    1.000
    C21      C        0.32100    0.36450    0.42840    1.000
    C22      C        0.32010    0.26730    0.23490    1.000
    C23      C        0.39460    0.15980    0.19430    1.000
    C24      C        0.39140    0.15840    0.11960    1.000
    C25      C        0.31410    0.26530    0.08100    1.000
    C26      C        0.24040    0.37290    0.12160    1.000
    C27      C        0.24490    0.37590    0.19610    1.000
    C28      C        0.31100    0.25990    0.00110    1.000
    C29      C        0.42790    0.19830    0.95910    1.000
    C30      C        0.42410    0.19370    0.88420    1.000
    C31      C        0.20490    0.30800    0.88940    1.000
    C32      C        0.20000    0.31790    0.96440    1.000
    N1       N        0.33380    0.25170    0.46690    1.000
    N2       N        0.31490    0.24450    0.84950    1.000
    O1       O        0.53950    0.19750    0.59570    1.000
    O2       O        0.51720    0.19480    0.71770    1.000
    O3       O        0.12360    0.27400    0.73130    1.000
    O4       O        0.14540    0.28160    0.60920    1.000
    O5       O        0.33090    0.42750    0.59220    1.000
    O6       O        0.30480    0.42470    0.71350    1.000
    O7       O        0.34220    0.05010    0.71620    1.000
    O8       O        0.35880    0.05270    0.59420    1.000
    F1       F        0.16740    0.48460    0.23090    1.000
    F2       F        0.16430    0.48380    0.08890    1.000
    Zn3      Zn       0.65668    0.75824    0.42308    1.000
    Zn4      Zn       0.68142    0.76191    0.26037    1.000
    H19      H        0.23990    0.78970    0.44830    1.000
    H20      H        0.04050    0.75650    0.44270    1.000
    H21      H        0.09080    0.75020    0.22540    1.000
    H22      H        0.28850    0.78590    0.23090    1.000
    H23      H        0.63940    0.36680    0.45510    1.000
    H24      H        0.63350    0.15650    0.45400    1.000
    H25      H        0.67850    0.16060    0.23510    1.000
    H26      H        0.69100    0.37120    0.23700    1.000
    H27      H        0.64990    0.93050    0.54620    1.000
    H28      H        0.66140    0.92460    0.66820    1.000
    H29      H        0.69560    0.54530    0.66940    1.000
    H30      H        0.68330    0.56240    0.54630    1.000
    H31      H        0.55210    0.91300    0.78220    1.000
    H32      H        0.55790    0.91540    0.90550    1.000
    H33      H        0.49400    0.83860    0.01910    1.000
    H34      H        0.49820    0.84700    0.14320    1.000
    H35      H        0.87110    0.65310    0.13400    1.000
    H36      H        0.87810    0.63640    0.01010    1.000
    C33      C        0.28620    0.78760    0.34010    1.000
    C34      C        0.21090    0.78100    0.40370    1.000
    C35      C        0.09100    0.76120    0.40020    1.000
    C36      C        0.04680    0.74860    0.33420    1.000
    C37      C        0.12060    0.75770    0.27000    1.000
    C38      C        0.23950    0.77830    0.27350    1.000
    C39      C        0.41970    0.80130    0.34300    1.000
    C40      C        0.91540    0.72920    0.33090    1.000
    C41      C        0.66800    0.38750    0.34570    1.000
    C42      C        0.64880    0.32470    0.41130    1.000
    C43      C        0.64420    0.19910    0.41060    1.000
    C44      C        0.65530    0.13660    0.34500    1.000
    C45      C        0.67210    0.20120    0.27900    1.000
    C46      C        0.67900    0.32810    0.28010    1.000
    C47      C        0.67910    0.52260    0.34640    1.000
    C48      C        0.65080    0.99950    0.34440    1.000
    C49      C        0.65930    0.85250    0.57120    1.000
    C50      C        0.66530    0.84980    0.64470    1.000
    C51      C        0.67740    0.73520    0.68490    1.000
    C52      C        0.68570    0.62440    0.64560    1.000
    C53      C        0.67900    0.63550    0.57160    1.000
    C54      C        0.67990    0.73270    0.76510    1.000
    C55      C        0.60540    0.84020    0.80570    1.000
    C56      C        0.60860    0.84160    0.88040    1.000
    C57      C        0.68590    0.73470    0.91900    1.000
    C58      C        0.75960    0.62710    0.87840    1.000
    C59      C        0.75510    0.62410    0.80390    1.000
    C60      C        0.68900    0.74010    0.99890    1.000
    C61      C        0.57210    0.80170    0.04090    1.000
    C62      C        0.57590    0.80630    0.11580    1.000
    C63      C        0.79510    0.69200    0.11060    1.000
    C64      C        0.80000    0.68210    0.03560    1.000
    N3       N        0.66620    0.74830    0.53310    1.000
    N4       N        0.68510    0.75550    0.15050    1.000
    O9       O        0.46050    0.80250    0.40430    1.000
    O10      O        0.48280    0.80520    0.28230    1.000
    O11      O        0.87640    0.72600    0.26870    1.000
    O12      O        0.85460    0.71840    0.39080    1.000
    O13      O        0.66910    0.57250    0.40780    1.000
    O14      O        0.69520    0.57530    0.28650    1.000
    O15      O        0.65780    0.94990    0.28380    1.000
    O16      O        0.64120    0.94730    0.40580    1.000
    F3       F        0.83260    0.51540    0.76910    1.000
    F4       F        0.83570    0.51620    0.91110    1.000
