# CIF file generated by openbabel 3.1.0, see https://openbabel.org
data_I
_chemical_name_common 'AGUWUV_clean'
_cell_length_a 8.1933
_cell_length_b 8.8646
_cell_length_c 12.2028
_cell_angle_alpha 110.057
_cell_angle_beta 92.897
_cell_angle_gamma 105.741
_space_group_name_H-M_alt 'P 1'
_space_group_name_Hall 'P 1'
loop_
    _symmetry_equiv_pos_as_xyz
    x,y,z
loop_
    _atom_site_label
    _atom_site_type_symbol
    _atom_site_fract_x
    _atom_site_fract_y
    _atom_site_fract_z
    _atom_site_occupancy
    Ni1      Ni       0.02606    0.05655    0.17948    1.000
    Ni2      Ni       0.97394    0.94345    0.82052    1.000
    Ni3      Ni       0.50000    0.50000    0.50000    1.000
    H1       H        0.03270    0.78160    0.54950    1.000
    H2       H        0.19850    0.62450    0.45190    1.000
    H3       H        0.43150    0.66930    0.75350    1.000
    H4       H        0.37570    0.86920    0.30370    1.000
    H5       H        0.96730    0.21840    0.45050    1.000
    H6       H        0.80150    0.37550    0.54810    1.000
    H7       H        0.56850    0.33070    0.24650    1.000
    H8       H        0.62430    0.13080    0.69630    1.000
    C1       C        0.24740    0.83670    0.89680    1.000
    C2       C        0.24460    0.77870    0.76860    1.000
    C3       C        0.11250    0.75820    0.59290    1.000
    C4       C        0.21400    0.66470    0.53400    1.000
    C5       C        0.34880    0.68940    0.71010    1.000
    C6       C        0.27370    0.13340    0.39420    1.000
    C7       C        0.39190    0.06780    0.45170    1.000
    C8       C        0.46770    0.14750    0.57120    1.000
    C9       C        0.45160    0.31270    0.65280    1.000
    C10      C        0.42570    0.92190    0.38280    1.000
    C11      C        0.75260    0.16330    0.10320    1.000
    C12      C        0.75540    0.22130    0.23140    1.000
    C13      C        0.88750    0.24180    0.40710    1.000
    C14      C        0.78600    0.33530    0.46600    1.000
    C15      C        0.65120    0.31060    0.28990    1.000
    C16      C        0.72630    0.86660    0.60580    1.000
    C17      C        0.60810    0.93220    0.54830    1.000
    C18      C        0.53230    0.85250    0.42880    1.000
    C19      C        0.54840    0.68730    0.34720    1.000
    C20      C        0.57430    0.07810    0.61720    1.000
    N1       N        0.13590    0.91410    0.94404    1.000
    N2       N        0.16610    0.94340    0.05926    1.000
    N3       N        0.29170    0.88590    0.08020    1.000
    N4       N        0.34500    0.81710    0.97770    1.000
    N5       N        0.12660    0.81530    0.71027    1.000
    N6       N        0.33320    0.63110    0.59203    1.000
    N7       N        0.86410    0.08590    0.05596    1.000
    N8       N        0.83390    0.05660    0.94074    1.000
    N9       N        0.70830    0.11410    0.91980    1.000
    N10      N        0.65500    0.18290    0.02230    1.000
    N11      N        0.87340    0.18470    0.28973    1.000
    N12      N        0.66680    0.36890    0.40797    1.000
    O1       O        0.15670    0.02380    0.31250    1.000
    O2       O        0.29420    0.28900    0.42789    1.000
    O3       O        0.54670    0.44480    0.64332    1.000
    O4       O        0.35800    0.31370    0.72700    1.000
    O5       O        0.84330    0.97620    0.68750    1.000
    O6       O        0.70580    0.71100    0.57211    1.000
    O7       O        0.45330    0.55520    0.35668    1.000
    O8       O        0.64200    0.68630    0.27300    1.000
