# CIF file generated by openbabel 3.1.0, see https://openbabel.org
data_I
_chemical_name_common 'image0'
_cell_length_a 9.334
_cell_length_b 25.458
_cell_length_c 19.822
_cell_angle_alpha 90
_cell_angle_beta 99.86
_cell_angle_gamma 90
_space_group_name_H-M_alt 'P 1'
_space_group_name_Hall 'P 1'
loop_
    _symmetry_equiv_pos_as_xyz
    x,y,z
loop_
    _atom_site_label
    _atom_site_type_symbol
    _atom_site_fract_x
    _atom_site_fract_y
    _atom_site_fract_z
    _atom_site_occupancy
    N1       N        0.19820    0.04897    0.02124    1.000
    N2       N        0.34970    0.11378    0.05792    1.000
    N3       N        0.90900    0.03813    0.07881    1.000
    N4       N        0.83900    0.05066    0.17780    1.000
    N5       N        0.10700    0.94067    0.07009    1.000
    N6       N        0.17060    0.86080    0.10740    1.000
    C1       C        0.21890    0.09227    0.05918    1.000
    H1       H        0.15100    0.10600    0.08360    1.000
    C2       C        0.32470    0.04327    0.99482    1.000
    H2       H        0.34350    0.01620    0.96610    1.000
    C3       C        0.41770    0.08300    0.01698    1.000
    H3       H        0.50990    0.08820    0.00630    1.000
    C4       C        0.39580    0.16544    0.08413    1.000
    H4       H        0.49980    0.16900    0.08570    1.000
    H5       H        0.37670    0.16890    0.13050    1.000
    C5       C        0.31770    0.20901    0.04013    1.000
    C6       C        0.29310    0.20550    0.96941    1.000
    H6       H        0.32250    0.17570    0.94840    1.000
    C7       C        0.27520    0.25380    0.07059    1.000
    H7       H        0.29230    0.25680    0.11810    1.000
    C8       C        0.89310    0.01634    0.13711    1.000
    H8       H        0.91630    0.98160    0.14880    1.000
    C9       C        0.86140    0.08899    0.08270    1.000
    H9       H        0.85820    0.11410    0.04850    1.000
    C10      C        0.82040    0.09681    0.14330    1.000
    H10      H        0.78560    0.12800    0.15880    1.000
    C11      C        0.80940    0.03900    0.24654    1.000
    H11      H        0.85640    0.06520    0.27840    1.000
    H12      H        0.85040    0.00510    0.26110    1.000
    C12      C        0.64750    0.03861    0.24846    1.000
    C13      C        0.57340    0.08576    0.24990    1.000
    H13      H        0.62350    0.11740    0.25080    1.000
    C14      C        0.57300    0.99161    0.24870    1.000
    H14      H        0.62200    0.96000    0.24700    1.000
    C15      C        0.06170    0.89262    0.07907    1.000
    H15      H        0.96550    0.88190    0.06720    1.000
    C16      C        0.25380    0.93919    0.09448    1.000
    H16      H        0.31620    0.96770    0.09530    1.000
    C17      C        0.29490    0.89038    0.11721    1.000
    H17      H        0.38830    0.87930    0.13570    1.000
    C18      C        0.16390    0.80364    0.11692    1.000
    H18      H        0.06590    0.79360    0.12170    1.000
    H19      H        0.22890    0.79370    0.15850    1.000
    C19      C        0.20760    0.77481    0.05586    1.000
    C20      C        0.11750    0.77522    0.99345    1.000
    H20      H        0.02780    0.79200    0.98860    1.000
    C21      C        0.33980    0.74943    0.06271    1.000
    H21      H        0.40080    0.74870    0.10500    1.000
    N7       N        0.69820    0.54897    0.02124    1.000
    N8       N        0.84970    0.61378    0.05792    1.000
    N9       N        0.40900    0.53813    0.07881    1.000
    N10      N        0.33900    0.55066    0.17780    1.000
    N11      N        0.60700    0.44067    0.07009    1.000
    N12      N        0.67060    0.36080    0.10740    1.000
    C22      C        0.71890    0.59227    0.05918    1.000
    H22      H        0.65100    0.60600    0.08360    1.000
    C23      C        0.82470    0.54327    0.99482    1.000
    H23      H        0.84350    0.51620    0.96610    1.000
    C24      C        0.91770    0.58300    0.01698    1.000
    H24      H        0.00990    0.58820    0.00630    1.000
    C25      C        0.89580    0.66544    0.08413    1.000
    H25      H        0.99980    0.66900    0.08570    1.000
    H26      H        0.87670    0.66890    0.13050    1.000
    C26      C        0.81770    0.70901    0.04013    1.000
    C27      C        0.79310    0.70550    0.96941    1.000
    H27      H        0.82250    0.67570    0.94840    1.000
    C28      C        0.77520    0.75380    0.07059    1.000
    H28      H        0.79230    0.75680    0.11810    1.000
    C29      C        0.39310    0.51634    0.13711    1.000
    H29      H        0.41630    0.48160    0.14880    1.000
    C30      C        0.36140    0.58899    0.08270    1.000
    H30      H        0.35820    0.61410    0.04850    1.000
    C31      C        0.32040    0.59681    0.14330    1.000
    H31      H        0.28560    0.62800    0.15880    1.000
    C32      C        0.30940    0.53900    0.24654    1.000
    H32      H        0.35640    0.56520    0.27840    1.000
    H33      H        0.35040    0.50510    0.26110    1.000
    C33      C        0.14750    0.53861    0.24846    1.000
    C34      C        0.07340    0.58576    0.24990    1.000
    H34      H        0.12350    0.61740    0.25080    1.000
    C35      C        0.07300    0.49161    0.24870    1.000
    H35      H        0.12200    0.46000    0.24700    1.000
    C36      C        0.56170    0.39262    0.07907    1.000
    H36      H        0.46550    0.38190    0.06720    1.000
    C37      C        0.75380    0.43919    0.09448    1.000
    H37      H        0.81620    0.46770    0.09530    1.000
    C38      C        0.79490    0.39038    0.11721    1.000
    H38      H        0.88830    0.37930    0.13570    1.000
    C39      C        0.66390    0.30364    0.11692    1.000
    H39      H        0.56590    0.29360    0.12170    1.000
    H40      H        0.72890    0.29370    0.15850    1.000
    C40      C        0.70760    0.27481    0.05586    1.000
    C41      C        0.61750    0.27522    0.99345    1.000
    H41      H        0.52780    0.29200    0.98860    1.000
    C42      C        0.83980    0.24943    0.06271    1.000
    H42      H        0.90080    0.24870    0.10500    1.000
    N13      N        0.80180    0.04897    0.47876    1.000
    N14      N        0.65030    0.11378    0.44208    1.000
    N15      N        0.09100    0.03813    0.42119    1.000
    N16      N        0.16100    0.05066    0.32220    1.000
    N17      N        0.89300    0.94067    0.42991    1.000
    N18      N        0.82940    0.86080    0.39260    1.000
    C43      C        0.78110    0.09227    0.44082    1.000
    H43      H        0.84900    0.10600    0.41640    1.000
    C44      C        0.67530    0.04327    0.50518    1.000
    H44      H        0.65650    0.01620    0.53390    1.000
    C45      C        0.58230    0.08300    0.48302    1.000
    H45      H        0.49010    0.08820    0.49370    1.000
    C46      C        0.60420    0.16544    0.41587    1.000
    H46      H        0.50020    0.16900    0.41430    1.000
    H47      H        0.62330    0.16890    0.36950    1.000
    C47      C        0.68230    0.20901    0.45987    1.000
    C48      C        0.70690    0.20550    0.53059    1.000
    H48      H        0.67750    0.17570    0.55160    1.000
    C49      C        0.72480    0.25380    0.42941    1.000
    H49      H        0.70770    0.25680    0.38190    1.000
    C50      C        0.10690    0.01634    0.36289    1.000
    H50      H        0.08370    0.98160    0.35120    1.000
    C51      C        0.13860    0.08899    0.41730    1.000
    H51      H        0.14180    0.11410    0.45150    1.000
    C52      C        0.17960    0.09681    0.35670    1.000
    H52      H        0.21440    0.12800    0.34120    1.000
    C53      C        0.19060    0.03900    0.25346    1.000
    H53      H        0.14360    0.06520    0.22160    1.000
    H54      H        0.14960    0.00510    0.23890    1.000
    C54      C        0.35250    0.03861    0.25154    1.000
    C55      C        0.42660    0.08576    0.25010    1.000
    H55      H        0.37650    0.11740    0.24920    1.000
    C56      C        0.42700    0.99161    0.25130    1.000
    H56      H        0.37800    0.96000    0.25300    1.000
    C57      C        0.93830    0.89262    0.42093    1.000
    H57      H        0.03450    0.88190    0.43280    1.000
    C58      C        0.74620    0.93919    0.40552    1.000
    H58      H        0.68380    0.96770    0.40470    1.000
    C59      C        0.70510    0.89038    0.38279    1.000
    H59      H        0.61170    0.87930    0.36430    1.000
    C60      C        0.83610    0.80364    0.38308    1.000
    H60      H        0.93410    0.79360    0.37830    1.000
    H61      H        0.77110    0.79370    0.34150    1.000
    C61      C        0.79240    0.77481    0.44414    1.000
    C62      C        0.88250    0.77522    0.50655    1.000
    H62      H        0.97220    0.79200    0.51140    1.000
    C63      C        0.66020    0.74943    0.43729    1.000
    H63      H        0.59920    0.74870    0.39500    1.000
    N19      N        0.30180    0.54897    0.47876    1.000
    N20      N        0.15030    0.61378    0.44208    1.000
    N21      N        0.59100    0.53813    0.42119    1.000
    N22      N        0.66100    0.55066    0.32220    1.000
    N23      N        0.39300    0.44067    0.42991    1.000
    N24      N        0.32940    0.36080    0.39260    1.000
    C64      C        0.28110    0.59227    0.44082    1.000
    H64      H        0.34900    0.60600    0.41640    1.000
    C65      C        0.17530    0.54327    0.50518    1.000
    H65      H        0.15650    0.51620    0.53390    1.000
    C66      C        0.08230    0.58300    0.48302    1.000
    H66      H        0.99010    0.58820    0.49370    1.000
    C67      C        0.10420    0.66544    0.41587    1.000
    H67      H        0.00020    0.66900    0.41430    1.000
    H68      H        0.12330    0.66890    0.36950    1.000
    C68      C        0.18230    0.70901    0.45987    1.000
    C69      C        0.20690    0.70550    0.53059    1.000
    H69      H        0.17750    0.67570    0.55160    1.000
    C70      C        0.22480    0.75380    0.42941    1.000
    H70      H        0.20770    0.75680    0.38190    1.000
    C71      C        0.60690    0.51634    0.36289    1.000
    H71      H        0.58370    0.48160    0.35120    1.000
    C72      C        0.63860    0.58899    0.41730    1.000
    H72      H        0.64180    0.61410    0.45150    1.000
    C73      C        0.67960    0.59681    0.35670    1.000
    H73      H        0.71440    0.62800    0.34120    1.000
    C74      C        0.69060    0.53900    0.25346    1.000
    H74      H        0.64360    0.56520    0.22160    1.000
    H75      H        0.64960    0.50510    0.23890    1.000
    C75      C        0.85250    0.53861    0.25154    1.000
    C76      C        0.92660    0.58576    0.25010    1.000
    H76      H        0.87650    0.61740    0.24920    1.000
    C77      C        0.92700    0.49161    0.25130    1.000
    H77      H        0.87800    0.46000    0.25300    1.000
    C78      C        0.43830    0.39262    0.42093    1.000
    H78      H        0.53450    0.38190    0.43280    1.000
    C79      C        0.24620    0.43919    0.40552    1.000
    H79      H        0.18380    0.46770    0.40470    1.000
    C80      C        0.20510    0.39038    0.38279    1.000
    H80      H        0.11170    0.37930    0.36430    1.000
    C81      C        0.33610    0.30364    0.38308    1.000
    H81      H        0.43410    0.29360    0.37830    1.000
    H82      H        0.27110    0.29370    0.34150    1.000
    C82      C        0.29240    0.27481    0.44414    1.000
    C83      C        0.38250    0.27522    0.50655    1.000
    H83      H        0.47220    0.29200    0.51140    1.000
    C84      C        0.16020    0.24943    0.43729    1.000
    H84      H        0.09920    0.24870    0.39500    1.000
    N25      N        0.80180    0.95103    0.97876    1.000
    N26      N        0.65030    0.88622    0.94208    1.000
    N27      N        0.09100    0.96187    0.92119    1.000
    N28      N        0.16100    0.94934    0.82220    1.000
    N29      N        0.89300    0.05933    0.92991    1.000
    N30      N        0.82940    0.13920    0.89260    1.000
    C85      C        0.78110    0.90773    0.94082    1.000
    H85      H        0.84900    0.89400    0.91640    1.000
    C86      C        0.67530    0.95673    0.00518    1.000
    H86      H        0.65650    0.98380    0.03390    1.000
    C87      C        0.58230    0.91700    0.98302    1.000
    H87      H        0.49010    0.91180    0.99370    1.000
    C88      C        0.60420    0.83456    0.91587    1.000
    H88      H        0.50020    0.83100    0.91430    1.000
    H89      H        0.62330    0.83110    0.86950    1.000
    C89      C        0.68230    0.79099    0.95987    1.000
    C90      C        0.70690    0.79450    0.03059    1.000
    H90      H        0.67750    0.82430    0.05160    1.000
    C91      C        0.72480    0.74620    0.92941    1.000
    H91      H        0.70770    0.74320    0.88190    1.000
    C92      C        0.10690    0.98366    0.86289    1.000
    H92      H        0.08370    0.01840    0.85120    1.000
    C93      C        0.13860    0.91101    0.91730    1.000
    H93      H        0.14180    0.88590    0.95150    1.000
    C94      C        0.17960    0.90319    0.85670    1.000
    H94      H        0.21440    0.87200    0.84120    1.000
    C95      C        0.19060    0.96100    0.75346    1.000
    H95      H        0.14360    0.93480    0.72160    1.000
    H96      H        0.14960    0.99490    0.73890    1.000
    C96      C        0.35250    0.96139    0.75154    1.000
    C97      C        0.42660    0.91424    0.75010    1.000
    H97      H        0.37650    0.88260    0.74920    1.000
    C98      C        0.42700    0.00839    0.75130    1.000
    H98      H        0.37800    0.04000    0.75300    1.000
    C99      C        0.93830    0.10738    0.92093    1.000
    H99      H        0.03450    0.11810    0.93280    1.000
    C100     C        0.74620    0.06081    0.90552    1.000
    H100     H        0.68380    0.03230    0.90470    1.000
    C101     C        0.70510    0.10962    0.88279    1.000
    H101     H        0.61170    0.12070    0.86430    1.000
    C102     C        0.83610    0.19636    0.88308    1.000
    H102     H        0.93410    0.20640    0.87830    1.000
    H103     H        0.77110    0.20630    0.84150    1.000
    C103     C        0.79240    0.22519    0.94414    1.000
    C104     C        0.88250    0.22478    0.00655    1.000
    H104     H        0.97220    0.20800    0.01140    1.000
    C105     C        0.66020    0.25057    0.93729    1.000
    H105     H        0.59920    0.25130    0.89500    1.000
    N31      N        0.30180    0.45103    0.97876    1.000
    N32      N        0.15030    0.38622    0.94208    1.000
    N33      N        0.59100    0.46187    0.92119    1.000
    N34      N        0.66100    0.44934    0.82220    1.000
    N35      N        0.39300    0.55933    0.92991    1.000
    N36      N        0.32940    0.63920    0.89260    1.000
    C106     C        0.28110    0.40773    0.94082    1.000
    H106     H        0.34900    0.39400    0.91640    1.000
    C107     C        0.17530    0.45673    0.00518    1.000
    H107     H        0.15650    0.48380    0.03390    1.000
    C108     C        0.08230    0.41700    0.98302    1.000
    H108     H        0.99010    0.41180    0.99370    1.000
    C109     C        0.10420    0.33456    0.91587    1.000
    H109     H        0.00020    0.33100    0.91430    1.000
    H110     H        0.12330    0.33110    0.86950    1.000
    C110     C        0.18230    0.29099    0.95987    1.000
    C111     C        0.20690    0.29450    0.03059    1.000
    H111     H        0.17750    0.32430    0.05160    1.000
    C112     C        0.22480    0.24620    0.92941    1.000
    H112     H        0.20770    0.24320    0.88190    1.000
    C113     C        0.60690    0.48366    0.86289    1.000
    H113     H        0.58370    0.51840    0.85120    1.000
    C114     C        0.63860    0.41101    0.91730    1.000
    H114     H        0.64180    0.38590    0.95150    1.000
    C115     C        0.67960    0.40319    0.85670    1.000
    H115     H        0.71440    0.37200    0.84120    1.000
    C116     C        0.69060    0.46100    0.75346    1.000
    H116     H        0.64360    0.43480    0.72160    1.000
    H117     H        0.64960    0.49490    0.73890    1.000
    C117     C        0.85250    0.46139    0.75154    1.000
    C118     C        0.92660    0.41424    0.75010    1.000
    H118     H        0.87650    0.38260    0.74920    1.000
    C119     C        0.92700    0.50839    0.75130    1.000
    H119     H        0.87800    0.54000    0.75300    1.000
    C120     C        0.43830    0.60738    0.92093    1.000
    H120     H        0.53450    0.61810    0.93280    1.000
    C121     C        0.24620    0.56081    0.90552    1.000
    H121     H        0.18380    0.53230    0.90470    1.000
    C122     C        0.20510    0.60962    0.88279    1.000
    H122     H        0.11170    0.62070    0.86430    1.000
    C123     C        0.33610    0.69636    0.88308    1.000
    H123     H        0.43410    0.70640    0.87830    1.000
    H124     H        0.27110    0.70630    0.84150    1.000
    C124     C        0.29240    0.72519    0.94414    1.000
    C125     C        0.38250    0.72478    0.00655    1.000
    H125     H        0.47220    0.70800    0.01140    1.000
    C126     C        0.16020    0.75057    0.93729    1.000
    H126     H        0.09920    0.75130    0.89500    1.000
    N37      N        0.19820    0.95103    0.52124    1.000
    N38      N        0.34970    0.88622    0.55792    1.000
    N39      N        0.90900    0.96187    0.57881    1.000
    N40      N        0.83900    0.94934    0.67780    1.000
    N41      N        0.10700    0.05933    0.57009    1.000
    N42      N        0.17060    0.13920    0.60740    1.000
    C127     C        0.21890    0.90773    0.55918    1.000
    H127     H        0.15100    0.89400    0.58360    1.000
    C128     C        0.32470    0.95673    0.49482    1.000
    H128     H        0.34350    0.98380    0.46610    1.000
    C129     C        0.41770    0.91700    0.51698    1.000
    H129     H        0.50990    0.91180    0.50630    1.000
    C130     C        0.39580    0.83456    0.58413    1.000
    H130     H        0.49980    0.83100    0.58570    1.000
    H131     H        0.37670    0.83110    0.63050    1.000
    C131     C        0.31770    0.79099    0.54013    1.000
    C132     C        0.29310    0.79450    0.46941    1.000
    H132     H        0.32250    0.82430    0.44840    1.000
    C133     C        0.27520    0.74620    0.57059    1.000
    H133     H        0.29230    0.74320    0.61810    1.000
    C134     C        0.89310    0.98366    0.63711    1.000
    H134     H        0.91630    0.01840    0.64880    1.000
    C135     C        0.86140    0.91101    0.58270    1.000
    H135     H        0.85820    0.88590    0.54850    1.000
    C136     C        0.82040    0.90319    0.64330    1.000
    H136     H        0.78560    0.87200    0.65880    1.000
    C137     C        0.80940    0.96100    0.74654    1.000
    H137     H        0.85640    0.93480    0.77840    1.000
    H138     H        0.85040    0.99490    0.76110    1.000
    C138     C        0.64750    0.96139    0.74846    1.000
    C139     C        0.57340    0.91424    0.74990    1.000
    H139     H        0.62350    0.88260    0.75080    1.000
    C140     C        0.57300    0.00839    0.74870    1.000
    H140     H        0.62200    0.04000    0.74700    1.000
    C141     C        0.06170    0.10738    0.57907    1.000
    H141     H        0.96550    0.11810    0.56720    1.000
    C142     C        0.25380    0.06081    0.59448    1.000
    H142     H        0.31620    0.03230    0.59530    1.000
    C143     C        0.29490    0.10962    0.61721    1.000
    H143     H        0.38830    0.12070    0.63570    1.000
    C144     C        0.16390    0.19636    0.61692    1.000
    H144     H        0.06590    0.20640    0.62170    1.000
    H145     H        0.22890    0.20630    0.65850    1.000
    C145     C        0.20760    0.22519    0.55586    1.000
    C146     C        0.11750    0.22478    0.49345    1.000
    H146     H        0.02780    0.20800    0.48860    1.000
    C147     C        0.33980    0.25057    0.56271    1.000
    H147     H        0.40080    0.25130    0.60500    1.000
    N43      N        0.69820    0.45103    0.52124    1.000
    N44      N        0.84970    0.38622    0.55792    1.000
    N45      N        0.40900    0.46187    0.57881    1.000
    N46      N        0.33900    0.44934    0.67780    1.000
    N47      N        0.60700    0.55933    0.57009    1.000
    N48      N        0.67060    0.63920    0.60740    1.000
    C148     C        0.71890    0.40773    0.55918    1.000
    H148     H        0.65100    0.39400    0.58360    1.000
    C149     C        0.82470    0.45673    0.49482    1.000
    H149     H        0.84350    0.48380    0.46610    1.000
    C150     C        0.91770    0.41700    0.51698    1.000
    H150     H        0.00990    0.41180    0.50630    1.000
    C151     C        0.89580    0.33456    0.58413    1.000
    H151     H        0.99980    0.33100    0.58570    1.000
    H152     H        0.87670    0.33110    0.63050    1.000
    C152     C        0.81770    0.29099    0.54013    1.000
    C153     C        0.79310    0.29450    0.46941    1.000
    H153     H        0.82250    0.32430    0.44840    1.000
    C154     C        0.77520    0.24620    0.57059    1.000
    H154     H        0.79230    0.24320    0.61810    1.000
    C155     C        0.39310    0.48366    0.63711    1.000
    H155     H        0.41630    0.51840    0.64880    1.000
    C156     C        0.36140    0.41101    0.58270    1.000
    H156     H        0.35820    0.38590    0.54850    1.000
    C157     C        0.32040    0.40319    0.64330    1.000
    H157     H        0.28560    0.37200    0.65880    1.000
    C158     C        0.30940    0.46100    0.74654    1.000
    H158     H        0.35640    0.43480    0.77840    1.000
    H159     H        0.35040    0.49490    0.76110    1.000
    C159     C        0.14750    0.46139    0.74846    1.000
    C160     C        0.07340    0.41424    0.74990    1.000
    H160     H        0.12350    0.38260    0.75080    1.000
    C161     C        0.07300    0.50839    0.74870    1.000
    H161     H        0.12200    0.54000    0.74700    1.000
    C162     C        0.56170    0.60738    0.57907    1.000
    H162     H        0.46550    0.61810    0.56720    1.000
    C163     C        0.75380    0.56081    0.59448    1.000
    H163     H        0.81620    0.53230    0.59530    1.000
    C164     C        0.79490    0.60962    0.61721    1.000
    H164     H        0.88830    0.62070    0.63570    1.000
    C165     C        0.66390    0.69636    0.61692    1.000
    H165     H        0.56590    0.70640    0.62170    1.000
    H166     H        0.72890    0.70630    0.65850    1.000
    C166     C        0.70760    0.72519    0.55586    1.000
    C167     C        0.61750    0.72478    0.49345    1.000
    H167     H        0.52780    0.70800    0.48860    1.000
    C168     C        0.83980    0.75057    0.56271    1.000
    H168     H        0.90080    0.75130    0.60500    1.000
    Co1      Co       0.00000    0.00000    0.00000    1.000
    Co2      Co       0.50000    0.50000    0.00000    1.000
    Co3      Co       0.00000    0.00000    0.50000    1.000
    Co4      Co       0.50000    0.50000    0.50000    1.000
