# CIF file generated by openbabel 3.1.0, see https://openbabel.org
data_I
_chemical_name_common 'image0'
_cell_length_a 29.8727
_cell_length_b 7.6518
_cell_length_c 22.1924
_cell_angle_alpha 90
_cell_angle_beta 122.867
_cell_angle_gamma 90
_space_group_name_H-M_alt 'P 1'
_space_group_name_Hall 'P 1'
loop_
    _symmetry_equiv_pos_as_xyz
    x,y,z
loop_
    _atom_site_label
    _atom_site_type_symbol
    _atom_site_fract_x
    _atom_site_fract_y
    _atom_site_fract_z
    _atom_site_occupancy
    U1       U        0.59010    0.61287    0.23915    1.000
    S1       S        0.54982    0.51545    0.48184    1.000
    S2       S        0.76617    0.65947    0.53279    1.000
    O1       O        0.57913    0.64280    0.33643    1.000
    O2       O        0.50236    0.64160    0.32883    1.000
    O3       O        0.64822    0.44920    0.68882    1.000
    O4       O        0.56379    0.38920    0.61455    1.000
    C1       C        0.55171    0.62840    0.36326    1.000
    C2       C        0.58104    0.59730    0.44192    1.000
    C3       C        0.63396    0.62420    0.49113    1.000
    H1       H        0.65770    0.67140    0.47930    1.000
    C4       C        0.64985    0.57510    0.56108    1.000
    H2       H        0.68530    0.58570    0.60160    1.000
    C5       C        0.60862    0.51050    0.56400    1.000
    C6       C        0.60759    0.44530    0.62605    1.000
    O5       O        0.67337    0.52870    0.33028    1.000
    O6       O        0.73290    0.36770    0.42232    1.000
    O7       O        0.82297    0.87340    0.66413    1.000
    O8       O        0.78276    0.12690    0.61294    1.000
    C7       C        0.71120    0.50590    0.39480    1.000
    C8       C        0.72878    0.66970    0.43980    1.000
    C9       C        0.71777    0.84090    0.41636    1.000
    H3       H        0.69810    0.87350    0.36720    1.000
    C10      C        0.73881    0.96160    0.47310    1.000
    H4       H        0.73570    0.08480    0.46680    1.000
    C11      C        0.76435    0.88070    0.53860    1.000
    C12      C        0.79200    0.96900    0.60940    1.000
    U2       U        0.09010    0.11287    0.23915    1.000
    S3       S        0.04982    0.01545    0.48184    1.000
    S4       S        0.26617    0.15947    0.53279    1.000
    O9       O        0.07913    0.14280    0.33643    1.000
    O10      O        0.00236    0.14160    0.32883    1.000
    O11      O        0.14822    0.94920    0.68882    1.000
    O12      O        0.06379    0.88920    0.61455    1.000
    C13      C        0.05171    0.12840    0.36326    1.000
    C14      C        0.08104    0.09730    0.44192    1.000
    C15      C        0.13396    0.12420    0.49113    1.000
    H5       H        0.15770    0.17140    0.47930    1.000
    C16      C        0.14985    0.07510    0.56108    1.000
    H6       H        0.18530    0.08570    0.60160    1.000
    C17      C        0.10862    0.01050    0.56400    1.000
    C18      C        0.10759    0.94530    0.62605    1.000
    O13      O        0.17337    0.02870    0.33028    1.000
    O14      O        0.23290    0.86770    0.42232    1.000
    O15      O        0.32297    0.37340    0.66413    1.000
    O16      O        0.28276    0.62690    0.61294    1.000
    C19      C        0.21120    0.00590    0.39480    1.000
    C20      C        0.22878    0.16970    0.43980    1.000
    C21      C        0.21777    0.34090    0.41636    1.000
    H7       H        0.19810    0.37350    0.36720    1.000
    C22      C        0.23881    0.46160    0.47310    1.000
    H8       H        0.23570    0.58480    0.46680    1.000
    C23      C        0.26435    0.38070    0.53860    1.000
    C24      C        0.29200    0.46900    0.60940    1.000
    U3       U        0.40990    0.61287    0.26085    1.000
    S5       S        0.45018    0.51545    0.01816    1.000
    S6       S        0.23383    0.65947    0.96721    1.000
    O17      O        0.42087    0.64280    0.16357    1.000
    O18      O        0.49764    0.64160    0.17117    1.000
    O19      O        0.35178    0.44920    0.81118    1.000
    O20      O        0.43621    0.38920    0.88545    1.000
    C25      C        0.44829    0.62840    0.13674    1.000
    C26      C        0.41896    0.59730    0.05808    1.000
    C27      C        0.36604    0.62420    0.00887    1.000
    H9       H        0.34230    0.67140    0.02070    1.000
    C28      C        0.35015    0.57510    0.93892    1.000
    H10      H        0.31470    0.58570    0.89840    1.000
    C29      C        0.39138    0.51050    0.93600    1.000
    C30      C        0.39241    0.44530    0.87395    1.000
    O21      O        0.32663    0.52870    0.16972    1.000
    O22      O        0.26710    0.36770    0.07768    1.000
    O23      O        0.17703    0.87340    0.83587    1.000
    O24      O        0.21724    0.12690    0.88706    1.000
    C31      C        0.28880    0.50590    0.10520    1.000
    C32      C        0.27122    0.66970    0.06020    1.000
    C33      C        0.28223    0.84090    0.08364    1.000
    H11      H        0.30190    0.87350    0.13280    1.000
    C34      C        0.26119    0.96160    0.02690    1.000
    H12      H        0.26430    0.08480    0.03320    1.000
    C35      C        0.23565    0.88070    0.96140    1.000
    C36      C        0.20800    0.96900    0.89060    1.000
    U4       U        0.90990    0.11287    0.26085    1.000
    S7       S        0.95018    0.01545    0.01816    1.000
    S8       S        0.73383    0.15947    0.96721    1.000
    O25      O        0.92087    0.14280    0.16357    1.000
    O26      O        0.99764    0.14160    0.17117    1.000
    O27      O        0.85178    0.94920    0.81118    1.000
    O28      O        0.93621    0.88920    0.88545    1.000
    C37      C        0.94829    0.12840    0.13674    1.000
    C38      C        0.91896    0.09730    0.05808    1.000
    C39      C        0.86604    0.12420    0.00887    1.000
    H13      H        0.84230    0.17140    0.02070    1.000
    C40      C        0.85015    0.07510    0.93892    1.000
    H14      H        0.81470    0.08570    0.89840    1.000
    C41      C        0.89138    0.01050    0.93600    1.000
    C42      C        0.89241    0.94530    0.87395    1.000
    O29      O        0.82663    0.02870    0.16972    1.000
    O30      O        0.76710    0.86770    0.07768    1.000
    O31      O        0.67703    0.37340    0.83587    1.000
    O32      O        0.71724    0.62690    0.88706    1.000
    C43      C        0.78880    0.00590    0.10520    1.000
    C44      C        0.77122    0.16970    0.06020    1.000
    C45      C        0.78223    0.34090    0.08364    1.000
    H15      H        0.80190    0.37350    0.13280    1.000
    C46      C        0.76119    0.46160    0.02690    1.000
    H16      H        0.76430    0.58480    0.03320    1.000
    C47      C        0.73565    0.38070    0.96140    1.000
    C48      C        0.70800    0.46900    0.89060    1.000
    U5       U        0.40990    0.38713    0.76085    1.000
    S9       S        0.45018    0.48455    0.51816    1.000
    S10      S        0.23383    0.34053    0.46721    1.000
    O33      O        0.42087    0.35720    0.66357    1.000
    O34      O        0.49764    0.35840    0.67117    1.000
    O35      O        0.35178    0.55080    0.31118    1.000
    O36      O        0.43621    0.61080    0.38545    1.000
    C49      C        0.44829    0.37160    0.63674    1.000
    C50      C        0.41896    0.40270    0.55808    1.000
    C51      C        0.36604    0.37580    0.50887    1.000
    H17      H        0.34230    0.32860    0.52070    1.000
    C52      C        0.35015    0.42490    0.43892    1.000
    H18      H        0.31470    0.41430    0.39840    1.000
    C53      C        0.39138    0.48950    0.43600    1.000
    C54      C        0.39241    0.55470    0.37395    1.000
    O37      O        0.32663    0.47130    0.66972    1.000
    O38      O        0.26710    0.63230    0.57768    1.000
    O39      O        0.17703    0.12660    0.33587    1.000
    O40      O        0.21724    0.87310    0.38706    1.000
    C55      C        0.28880    0.49410    0.60520    1.000
    C56      C        0.27122    0.33030    0.56020    1.000
    C57      C        0.28223    0.15910    0.58364    1.000
    H19      H        0.30190    0.12650    0.63280    1.000
    C58      C        0.26119    0.03840    0.52690    1.000
    H20      H        0.26430    0.91520    0.53320    1.000
    C59      C        0.23565    0.11930    0.46140    1.000
    C60      C        0.20800    0.03100    0.39060    1.000
    U6       U        0.90990    0.88713    0.76085    1.000
    S11      S        0.95018    0.98455    0.51816    1.000
    S12      S        0.73383    0.84053    0.46721    1.000
    O41      O        0.92087    0.85720    0.66357    1.000
    O42      O        0.99764    0.85840    0.67117    1.000
    O43      O        0.85178    0.05080    0.31118    1.000
    O44      O        0.93621    0.11080    0.38545    1.000
    C61      C        0.94829    0.87160    0.63674    1.000
    C62      C        0.91896    0.90270    0.55808    1.000
    C63      C        0.86604    0.87580    0.50887    1.000
    H21      H        0.84230    0.82860    0.52070    1.000
    C64      C        0.85015    0.92490    0.43892    1.000
    H22      H        0.81470    0.91430    0.39840    1.000
    C65      C        0.89138    0.98950    0.43600    1.000
    C66      C        0.89241    0.05470    0.37395    1.000
    O45      O        0.82663    0.97130    0.66972    1.000
    O46      O        0.76710    0.13230    0.57768    1.000
    O47      O        0.67703    0.62660    0.33587    1.000
    O48      O        0.71724    0.37310    0.38706    1.000
    C67      C        0.78880    0.99410    0.60520    1.000
    C68      C        0.77122    0.83030    0.56020    1.000
    C69      C        0.78223    0.65910    0.58364    1.000
    H23      H        0.80190    0.62650    0.63280    1.000
    C70      C        0.76119    0.53840    0.52690    1.000
    H24      H        0.76430    0.41520    0.53320    1.000
    C71      C        0.73565    0.61930    0.46140    1.000
    C72      C        0.70800    0.53100    0.39060    1.000
    U7       U        0.59010    0.38713    0.73915    1.000
    S13      S        0.54982    0.48455    0.98184    1.000
    S14      S        0.76617    0.34053    0.03279    1.000
    O49      O        0.57913    0.35720    0.83643    1.000
    O50      O        0.50236    0.35840    0.82883    1.000
    O51      O        0.64822    0.55080    0.18882    1.000
    O52      O        0.56379    0.61080    0.11455    1.000
    C73      C        0.55171    0.37160    0.86326    1.000
    C74      C        0.58104    0.40270    0.94192    1.000
    C75      C        0.63396    0.37580    0.99113    1.000
    H25      H        0.65770    0.32860    0.97930    1.000
    C76      C        0.64985    0.42490    0.06108    1.000
    H26      H        0.68530    0.41430    0.10160    1.000
    C77      C        0.60862    0.48950    0.06400    1.000
    C78      C        0.60759    0.55470    0.12605    1.000
    O53      O        0.67337    0.47130    0.83028    1.000
    O54      O        0.73290    0.63230    0.92232    1.000
    O55      O        0.82297    0.12660    0.16413    1.000
    O56      O        0.78276    0.87310    0.11294    1.000
    C79      C        0.71120    0.49410    0.89480    1.000
    C80      C        0.72878    0.33030    0.93980    1.000
    C81      C        0.71777    0.15910    0.91636    1.000
    H27      H        0.69810    0.12650    0.86720    1.000
    C82      C        0.73881    0.03840    0.97310    1.000
    H28      H        0.73570    0.91520    0.96680    1.000
    C83      C        0.76435    0.11930    0.03860    1.000
    C84      C        0.79200    0.03100    0.10940    1.000
    U8       U        0.09010    0.88713    0.73915    1.000
    S15      S        0.04982    0.98455    0.98184    1.000
    S16      S        0.26617    0.84053    0.03279    1.000
    O57      O        0.07913    0.85720    0.83643    1.000
    O58      O        0.00236    0.85840    0.82883    1.000
    O59      O        0.14822    0.05080    0.18882    1.000
    O60      O        0.06379    0.11080    0.11455    1.000
    C85      C        0.05171    0.87160    0.86326    1.000
    C86      C        0.08104    0.90270    0.94192    1.000
    C87      C        0.13396    0.87580    0.99113    1.000
    H29      H        0.15770    0.82860    0.97930    1.000
    C88      C        0.14985    0.92490    0.06108    1.000
    H30      H        0.18530    0.91430    0.10160    1.000
    C89      C        0.10862    0.98950    0.06400    1.000
    C90      C        0.10759    0.05470    0.12605    1.000
    O61      O        0.17337    0.97130    0.83028    1.000
    O62      O        0.23290    0.13230    0.92232    1.000
    O63      O        0.32297    0.62660    0.16413    1.000
    O64      O        0.28276    0.37310    0.11294    1.000
    C91      C        0.21120    0.99410    0.89480    1.000
    C92      C        0.22878    0.83030    0.93980    1.000
    C93      C        0.21777    0.65910    0.91636    1.000
    H31      H        0.19810    0.62650    0.86720    1.000
    C94      C        0.23881    0.53840    0.97310    1.000
    H32      H        0.23570    0.41520    0.96680    1.000
    C95      C        0.26435    0.61930    0.03860    1.000
    C96      C        0.29200    0.53100    0.10940    1.000
