# CIF file generated by openbabel 3.1.0, see https://openbabel.org
data_I
_chemical_name_common 'image0'
_cell_length_a 10.7998
_cell_length_b 14.5731
_cell_length_c 17.059
_cell_angle_alpha 78.401
_cell_angle_beta 89.438
_cell_angle_gamma 83.039
_space_group_name_H-M_alt 'P 1'
_space_group_name_Hall 'P 1'
loop_
    _symmetry_equiv_pos_as_xyz
    x,y,z
loop_
    _atom_site_label
    _atom_site_type_symbol
    _atom_site_fract_x
    _atom_site_fract_y
    _atom_site_fract_z
    _atom_site_occupancy
    Co1      Co       0.26760    0.88879    0.50835    1.000
    Co2      Co       0.49278    0.01918    0.40603    1.000
    Co3      Co       0.73662    0.58668    0.97474    1.000
    Co4      Co       0.50062    0.46401    0.91805    1.000
    O1       O        0.81833    0.02926    0.59125    1.000
    O2       O        0.69689    0.91278    0.60136    1.000
    O3       O        0.74138    0.66037    0.84629    1.000
    O4       O        0.90253    0.64625    0.92704    1.000
    O5       O        0.27805    0.78332    0.61797    1.000
    O6       O        0.09534    0.82027    0.55816    1.000
    O7       O        0.44705    0.91660    0.50221    1.000
    O8       O        0.17881    0.46035    0.91528    1.000
    O9       O        0.33210    0.54811    0.87347    1.000
    O10      O        0.55527    0.57346    0.96156    1.000
    O11      O        0.44853    0.96934    0.30671    1.000
    O12      O        0.44850    0.81433    0.32163    1.000
    O13      O        0.68210    0.71824    0.00652    1.000
    O14      O        0.55708    0.65648    0.10483    1.000
    O15      O        0.59110    0.13931    0.04347    1.000
    O16      O        0.70540    0.06330    0.97240    1.000
    O17      O        0.81980    0.48280    0.74740    1.000
    O18      O        0.78890    0.58680    0.63720    1.000
    O19      O        0.18290    0.98500    0.76609    1.000
    O20      O        0.16190    0.90660    0.88600    1.000
    N1       N        0.22430    0.00475    0.56611    1.000
    N2       N        0.31755    0.04502    0.59512    1.000
    N3       N        0.14350    0.13843    0.59435    1.000
    N4       N        0.86670    0.30750    0.94586    1.000
    N5       N        0.78147    0.44966    0.94911    1.000
    N6       N        0.68797    0.39557    0.94044    1.000
    N7       N        0.64190    0.06441    0.03067    1.000
    N8       N        0.14400    0.91900    0.80920    1.000
    N9       N        0.85200    0.54790    0.69620    1.000
    C1       C        0.12090    0.06250    0.56567    1.000
    H1       H        0.04260    0.05220    0.54790    1.000
    C2       C        0.26650    0.12470    0.61210    1.000
    H2       H        0.30960    0.16650    0.63360    1.000
    C3       C        0.05150    0.21990    0.60429    1.000
    H3       H        0.97260    0.21600    0.57790    1.000
    H4       H        0.08260    0.27870    0.57830    1.000
    C4       C        0.02840    0.22150    0.69151    1.000
    C5       C        0.10360    0.26590    0.73336    1.000
    H5       H        0.16930    0.29580    0.70710    1.000
    C6       C        0.08330    0.26670    0.81349    1.000
    H6       H        0.13500    0.29740    0.84110    1.000
    C7       C        0.98750    0.22257    0.85319    1.000
    C8       C        0.91180    0.17870    0.81120    1.000
    H7       H        0.84600    0.14890    0.83750    1.000
    C9       C        0.93140    0.17800    0.73150    1.000
    H8       H        0.87900    0.14800    0.70390    1.000
    C10      C        0.96200    0.22730    0.93992    1.000
    H9       H        0.93280    0.16830    0.96750    1.000
    H10      H        0.03940    0.23450    0.96630    1.000
    C11      C        0.88710    0.39533    0.95213    1.000
    H11      H        0.96590    0.41450    0.95780    1.000
    C12      C        0.74210    0.31121    0.93802    1.000
    H12      H        0.70010    0.26020    0.93170    1.000
    C13      C        0.78590    0.94954    0.62342    1.000
    C14      C        0.86230    0.89660    0.69512    1.000
    C15      C        0.82400    0.81557    0.74192    1.000
    H13      H        0.75220    0.79230    0.72700    1.000
    C16      C        0.89110    0.76849    0.81071    1.000
    C17      C        0.99680    0.80130    0.83281    1.000
    H14      H        0.04270    0.77020    0.87910    1.000
    C18      C        0.03380    0.88160    0.78498    1.000
    C19      C        0.96840    0.93020    0.71780    1.000
    H15      H        0.99510    0.98550    0.68760    1.000
    C20      C        0.84320    0.68574    0.86402    1.000
    C21      C        0.22670    0.52368    0.86620    1.000
    C22      C        0.14980    0.57093    0.79319    1.000
    C23      C        0.18950    0.64703    0.73920    1.000
    H16      H        0.26540    0.66870    0.74880    1.000
    C24      C        0.11800    0.69121    0.67124    1.000
    C25      C        0.00630    0.65908    0.65629    1.000
    H17      H        0.95690    0.68810    0.61090    1.000
    C26      C        0.96990    0.58290    0.71039    1.000
    C27      C        0.03920    0.53850    0.77785    1.000
    H18      H        0.01150    0.48690    0.81300    1.000
    C28      C        0.16440    0.77052    0.61216    1.000
    C29      C        0.61490    0.72155    0.06690    1.000
    C30      C        0.59920    0.81178    0.09785    1.000
    C31      C        0.63660    0.89410    0.05314    1.000
    H19      H        0.67870    0.89370    0.00470    1.000
    C32      C        0.61050    0.97652    0.08152    1.000
    C33      C        0.55500    0.97936    0.15450    1.000
    H20      H        0.53980    0.03640    0.17270    1.000
    C34      C        0.52190    0.89583    0.20048    1.000
    C35      C        0.54300    0.81325    0.17069    1.000
    H21      H        0.51830    0.75720    0.20080    1.000
    C36      C        0.46700    0.89330    0.28253    1.000
    H22      H        0.50680    0.86690    0.50750    1.000
    H23      H        0.50500    0.62660    0.94100    1.000
    O21      O        0.74700    0.04800    0.99190    1.000
    O22      O        0.84100    0.46320    0.72350    1.000
    O23      O        0.21890    0.85950    0.85720    1.000
    O24      O        0.81900    0.56300    0.61530    1.000
    O25      O        0.76570    0.61350    0.66250    1.000
    Co5      Co       0.73240    0.11121    0.49165    1.000
    Co6      Co       0.50722    0.98082    0.59397    1.000
    Co7      Co       0.26338    0.41332    0.02526    1.000
    Co8      Co       0.49938    0.53599    0.08195    1.000
    O26      O        0.18167    0.97074    0.40875    1.000
    O27      O        0.30311    0.08722    0.39864    1.000
    O28      O        0.25862    0.33963    0.15371    1.000
    O29      O        0.09747    0.35375    0.07296    1.000
    O30      O        0.72195    0.21668    0.38203    1.000
    O31      O        0.90466    0.17973    0.44184    1.000
    O32      O        0.55295    0.08340    0.49779    1.000
    O33      O        0.82119    0.53965    0.08472    1.000
    O34      O        0.66790    0.45189    0.12653    1.000
    O35      O        0.44473    0.42654    0.03844    1.000
    O36      O        0.55147    0.03066    0.69329    1.000
    O37      O        0.55150    0.18567    0.67837    1.000
    O38      O        0.31790    0.28176    0.99348    1.000
    O39      O        0.44292    0.34352    0.89517    1.000
    O40      O        0.40890    0.86069    0.95653    1.000
    O41      O        0.29460    0.93670    0.02760    1.000
    O42      O        0.18020    0.51720    0.25260    1.000
    O43      O        0.21110    0.41320    0.36280    1.000
    O44      O        0.81710    0.01500    0.23391    1.000
    O45      O        0.83810    0.09340    0.11400    1.000
    N10      N        0.77570    0.99525    0.43389    1.000
    N11      N        0.68245    0.95498    0.40488    1.000
    N12      N        0.85650    0.86157    0.40565    1.000
    N13      N        0.13330    0.69250    0.05414    1.000
    N14      N        0.21853    0.55034    0.05089    1.000
    N15      N        0.31203    0.60443    0.05956    1.000
    N16      N        0.35810    0.93559    0.96933    1.000
    N17      N        0.85600    0.08100    0.19080    1.000
    N18      N        0.14800    0.45210    0.30380    1.000
    C37      C        0.87910    0.93750    0.43433    1.000
    H24      H        0.95740    0.94780    0.45210    1.000
    C38      C        0.73350    0.87530    0.38790    1.000
    H25      H        0.69040    0.83350    0.36640    1.000
    C39      C        0.94850    0.78010    0.39571    1.000
    H26      H        0.02740    0.78400    0.42210    1.000
    H27      H        0.91740    0.72130    0.42170    1.000
    C40      C        0.97160    0.77850    0.30849    1.000
    C41      C        0.89640    0.73410    0.26664    1.000
    H28      H        0.83070    0.70420    0.29290    1.000
    C42      C        0.91670    0.73330    0.18651    1.000
    H29      H        0.86500    0.70260    0.15890    1.000
    C43      C        0.01250    0.77743    0.14681    1.000
    C44      C        0.08820    0.82130    0.18880    1.000
    H30      H        0.15400    0.85110    0.16250    1.000
    C45      C        0.06860    0.82200    0.26850    1.000
    H31      H        0.12100    0.85200    0.29610    1.000
    C46      C        0.03800    0.77270    0.06008    1.000
    H32      H        0.06720    0.83170    0.03250    1.000
    H33      H        0.96060    0.76550    0.03370    1.000
    C47      C        0.11290    0.60467    0.04787    1.000
    H34      H        0.03410    0.58550    0.04220    1.000
    C48      C        0.25790    0.68879    0.06198    1.000
    H35      H        0.29990    0.73980    0.06830    1.000
    C49      C        0.21410    0.05046    0.37658    1.000
    C50      C        0.13770    0.10340    0.30488    1.000
    C51      C        0.17600    0.18443    0.25808    1.000
    H36      H        0.24780    0.20770    0.27300    1.000
    C52      C        0.10890    0.23151    0.18929    1.000
    C53      C        0.00320    0.19870    0.16719    1.000
    H37      H        0.95730    0.22980    0.12090    1.000
    C54      C        0.96620    0.11840    0.21502    1.000
    C55      C        0.03160    0.06980    0.28220    1.000
    H38      H        0.00490    0.01450    0.31240    1.000
    C56      C        0.15680    0.31426    0.13598    1.000
    C57      C        0.77330    0.47632    0.13380    1.000
    C58      C        0.85020    0.42907    0.20681    1.000
    C59      C        0.81050    0.35297    0.26080    1.000
    H39      H        0.73460    0.33130    0.25120    1.000
    C60      C        0.88200    0.30879    0.32876    1.000
    C61      C        0.99370    0.34092    0.34371    1.000
    H40      H        0.04310    0.31190    0.38910    1.000
    C62      C        0.03010    0.41710    0.28961    1.000
    C63      C        0.96080    0.46150    0.22215    1.000
    H41      H        0.98850    0.51310    0.18700    1.000
    C64      C        0.83560    0.22948    0.38784    1.000
    C65      C        0.38510    0.27845    0.93310    1.000
    C66      C        0.40080    0.18822    0.90215    1.000
    C67      C        0.36340    0.10590    0.94686    1.000
    H42      H        0.32130    0.10630    0.99530    1.000
    C68      C        0.38950    0.02348    0.91848    1.000
    C69      C        0.44500    0.02064    0.84550    1.000
    H43      H        0.46020    0.96360    0.82730    1.000
    C70      C        0.47810    0.10417    0.79952    1.000
    C71      C        0.45700    0.18675    0.82931    1.000
    H44      H        0.48170    0.24280    0.79920    1.000
    C72      C        0.53300    0.10670    0.71747    1.000
    H45      H        0.49320    0.13310    0.49250    1.000
    H46      H        0.49500    0.37340    0.05900    1.000
    O46      O        0.25300    0.95200    0.00810    1.000
    O47      O        0.15900    0.53680    0.27650    1.000
    O48      O        0.78110    0.14050    0.14280    1.000
    O49      O        0.18100    0.43700    0.38470    1.000
    O50      O        0.23430    0.38650    0.33750    1.000
