# CIF file generated by openbabel 3.1.0, see https://openbabel.org
data_I
_chemical_name_common 'image0'
_cell_length_a 19.569
_cell_length_b 9.7034
_cell_length_c 14.927
_cell_angle_alpha 90
_cell_angle_beta 119.091
_cell_angle_gamma 90
_space_group_name_H-M_alt 'P 1'
_space_group_name_Hall 'P 1'
loop_
    _symmetry_equiv_pos_as_xyz
    x,y,z
loop_
    _atom_site_label
    _atom_site_type_symbol
    _atom_site_fract_x
    _atom_site_fract_y
    _atom_site_fract_z
    _atom_site_occupancy
    P1       P        0.42252    0.26009    0.57430    1.000
    P2       P        0.62654    0.70039    0.96368    1.000
    O1       O        0.70970    0.64790    0.02780    1.000
    O2       O        0.62830    0.85900    0.96630    1.000
    O3       O        0.58960    0.65360    0.85270    1.000
    O4       O        0.43700    0.33910    0.66830    1.000
    O5       O        0.57860    0.65530    0.01430    1.000
    O6       O        0.41780    0.35030    0.48940    1.000
    O7       O        0.48220    0.14700    0.59780    1.000
    O8       O        0.34200    0.19200    0.53210    1.000
    H1       H        0.31040    0.24860    0.53100    1.000
    P3       P        0.92252    0.76009    0.57430    1.000
    P4       P        0.12654    0.20039    0.96368    1.000
    O9       O        0.20970    0.14790    0.02780    1.000
    O10      O        0.12830    0.35900    0.96630    1.000
    O11      O        0.08960    0.15360    0.85270    1.000
    O12      O        0.93700    0.83910    0.66830    1.000
    O13      O        0.07860    0.15530    0.01430    1.000
    O14      O        0.91780    0.85030    0.48940    1.000
    O15      O        0.98220    0.64700    0.59780    1.000
    O16      O        0.84200    0.69200    0.53210    1.000
    H2       H        0.81040    0.74860    0.53100    1.000
    P5       P        0.57748    0.26009    0.42570    1.000
    P6       P        0.37346    0.70039    0.03632    1.000
    O17      O        0.29030    0.64790    0.97220    1.000
    O18      O        0.37170    0.85900    0.03370    1.000
    O19      O        0.41040    0.65360    0.14730    1.000
    O20      O        0.56300    0.33910    0.33170    1.000
    O21      O        0.42140    0.65530    0.98570    1.000
    O22      O        0.58220    0.35030    0.51060    1.000
    O23      O        0.51780    0.14700    0.40220    1.000
    O24      O        0.65800    0.19200    0.46790    1.000
    H3       H        0.68960    0.24860    0.46900    1.000
    P7       P        0.07748    0.76009    0.42570    1.000
    P8       P        0.87346    0.20039    0.03632    1.000
    O25      O        0.79030    0.14790    0.97220    1.000
    O26      O        0.87170    0.35900    0.03370    1.000
    O27      O        0.91040    0.15360    0.14730    1.000
    O28      O        0.06300    0.83910    0.33170    1.000
    O29      O        0.92140    0.15530    0.98570    1.000
    O30      O        0.08220    0.85030    0.51060    1.000
    O31      O        0.01780    0.64700    0.40220    1.000
    O32      O        0.15800    0.69200    0.46790    1.000
    H4       H        0.18960    0.74860    0.46900    1.000
    P9       P        0.57748    0.73991    0.42570    1.000
    P10      P        0.37346    0.29961    0.03632    1.000
    O33      O        0.29030    0.35210    0.97220    1.000
    O34      O        0.37170    0.14100    0.03370    1.000
    O35      O        0.41040    0.34640    0.14730    1.000
    O36      O        0.56300    0.66090    0.33170    1.000
    O37      O        0.42140    0.34470    0.98570    1.000
    O38      O        0.58220    0.64970    0.51060    1.000
    O39      O        0.51780    0.85300    0.40220    1.000
    O40      O        0.65800    0.80800    0.46790    1.000
    H5       H        0.68960    0.75140    0.46900    1.000
    P11      P        0.07748    0.23991    0.42570    1.000
    P12      P        0.87346    0.79961    0.03632    1.000
    O41      O        0.79030    0.85210    0.97220    1.000
    O42      O        0.87170    0.64100    0.03370    1.000
    O43      O        0.91040    0.84640    0.14730    1.000
    O44      O        0.06300    0.16090    0.33170    1.000
    O45      O        0.92140    0.84470    0.98570    1.000
    O46      O        0.08220    0.14970    0.51060    1.000
    O47      O        0.01780    0.35300    0.40220    1.000
    O48      O        0.15800    0.30800    0.46790    1.000
    H6       H        0.18960    0.25140    0.46900    1.000
    P13      P        0.42252    0.73991    0.57430    1.000
    P14      P        0.62654    0.29961    0.96368    1.000
    O49      O        0.70970    0.35210    0.02780    1.000
    O50      O        0.62830    0.14100    0.96630    1.000
    O51      O        0.58960    0.34640    0.85270    1.000
    O52      O        0.43700    0.66090    0.66830    1.000
    O53      O        0.57860    0.34470    0.01430    1.000
    O54      O        0.41780    0.64970    0.48940    1.000
    O55      O        0.48220    0.85300    0.59780    1.000
    O56      O        0.34200    0.80800    0.53210    1.000
    H7       H        0.31040    0.75140    0.53100    1.000
    P15      P        0.92252    0.23991    0.57430    1.000
    P16      P        0.12654    0.79961    0.96368    1.000
    O57      O        0.20970    0.85210    0.02780    1.000
    O58      O        0.12830    0.64100    0.96630    1.000
    O59      O        0.08960    0.84640    0.85270    1.000
    O60      O        0.93700    0.16090    0.66830    1.000
    O61      O        0.07860    0.84470    0.01430    1.000
    O62      O        0.91780    0.14970    0.48940    1.000
    O63      O        0.98220    0.35300    0.59780    1.000
    O64      O        0.84200    0.30800    0.53210    1.000
    H8       H        0.81040    0.25140    0.53100    1.000
    In1      In       0.78206    0.50000    0.01392    1.000
    In2      In       0.51224    0.50000    0.76073    1.000
    F1       F        0.73430    0.50000    0.85670    1.000
    F2       F        0.83670    0.50000    0.17950    1.000
    F3       F        0.44680    0.50000    0.83810    1.000
    F4       F        0.56190    0.50000    0.66210    1.000
    In3      In       0.28206    0.00000    0.01392    1.000
    In4      In       0.01224    0.00000    0.76073    1.000
    F5       F        0.23430    0.00000    0.85670    1.000
    F6       F        0.33670    0.00000    0.17950    1.000
    F7       F        0.94680    0.00000    0.83810    1.000
    F8       F        0.06190    0.00000    0.66210    1.000
    In5      In       0.21794    0.50000    0.98608    1.000
    In6      In       0.48776    0.50000    0.23927    1.000
    F9       F        0.26570    0.50000    0.14330    1.000
    F10      F        0.16330    0.50000    0.82050    1.000
    F11      F        0.55320    0.50000    0.16190    1.000
    F12      F        0.43810    0.50000    0.33790    1.000
    In7      In       0.71794    0.00000    0.98608    1.000
    In8      In       0.98776    0.00000    0.23927    1.000
    F13      F        0.76570    0.00000    0.14330    1.000
    F14      F        0.66330    0.00000    0.82050    1.000
    F15      F        0.05320    0.00000    0.16190    1.000
    F16      F        0.93810    0.00000    0.33790    1.000
    In9      In       0.50000    0.50000    0.00000    1.000
    In10     In       0.00000    0.00000    0.00000    1.000
    In11     In       0.50000    0.50000    0.50000    1.000
    In12     In       0.00000    0.00000    0.50000    1.000
    In13     In       0.50000    0.00000    0.50000    1.000
    In14     In       0.00000    0.50000    0.50000    1.000
