# CIF file generated by openbabel 3.1.0, see https://openbabel.org
data_I
_chemical_name_common 'image0'
_cell_length_a 23.5973
_cell_length_b 23.6053
_cell_length_c 28.0515
_cell_angle_alpha 90
_cell_angle_beta 90
_cell_angle_gamma 90
_space_group_name_H-M_alt 'P 1'
_space_group_name_Hall 'P 1'
loop_
    _symmetry_equiv_pos_as_xyz
    x,y,z
loop_
    _atom_site_label
    _atom_site_type_symbol
    _atom_site_fract_x
    _atom_site_fract_y
    _atom_site_fract_z
    _atom_site_occupancy
    O1       O        0.58452    0.46470    0.21067    1.000
    C1       C        0.76079    0.46533    0.20877    1.000
    H1       H        0.78020    0.46580    0.17990    1.000
    C2       C        0.70240    0.46529    0.20832    1.000
    H2       H        0.68330    0.46560    0.17930    1.000
    C3       C        0.53530    0.44231    0.40602    1.000
    C4       C        0.53450    0.45355    0.45610    1.000
    H3       H        0.55770    0.43290    0.47650    1.000
    C5       C        0.46930    0.52470    0.44235    1.000
    H4       H        0.44730    0.55480    0.45290    1.000
    C6       C        0.47084    0.51110    0.39412    1.000
    H5       H        0.44910    0.53290    0.37350    1.000
    C7       C        0.57260    0.39260    0.38643    1.000
    H6       H        0.56790    0.38980    0.35250    1.000
    H7       H        0.56110    0.35770    0.40110    1.000
    H8       H        0.61170    0.39980    0.39370    1.000
    O2       O        0.08452    0.96470    0.21067    1.000
    C8       C        0.26079    0.96533    0.20877    1.000
    H9       H        0.28020    0.96580    0.17990    1.000
    C9       C        0.20240    0.96529    0.20832    1.000
    H10      H        0.18330    0.96560    0.17930    1.000
    C10      C        0.03530    0.94231    0.40602    1.000
    C11      C        0.03450    0.95355    0.45610    1.000
    H11      H        0.05770    0.93290    0.47650    1.000
    C12      C        0.96930    0.02470    0.44235    1.000
    H12      H        0.94730    0.05480    0.45290    1.000
    C13      C        0.97084    0.01110    0.39412    1.000
    H13      H        0.94910    0.03290    0.37350    1.000
    C14      C        0.07260    0.89260    0.38643    1.000
    H14      H        0.06790    0.88980    0.35250    1.000
    H15      H        0.06110    0.85770    0.40110    1.000
    H16      H        0.11170    0.89980    0.39370    1.000
    O3       O        0.41548    0.53530    0.71067    1.000
    C15      C        0.23921    0.53467    0.70877    1.000
    H17      H        0.21980    0.53420    0.67990    1.000
    C16      C        0.29760    0.53471    0.70832    1.000
    H18      H        0.31670    0.53440    0.67930    1.000
    C17      C        0.46470    0.55769    0.90602    1.000
    C18      C        0.46550    0.54645    0.95610    1.000
    H19      H        0.44230    0.56710    0.97650    1.000
    C19      C        0.53070    0.47530    0.94235    1.000
    H20      H        0.55270    0.44520    0.95290    1.000
    C20      C        0.52916    0.48890    0.89412    1.000
    H21      H        0.55090    0.46710    0.87350    1.000
    C21      C        0.42740    0.60740    0.88643    1.000
    H22      H        0.43210    0.61020    0.85250    1.000
    H23      H        0.43890    0.64230    0.90110    1.000
    H24      H        0.38830    0.60020    0.89370    1.000
    O4       O        0.91548    0.03530    0.71067    1.000
    C22      C        0.73921    0.03467    0.70877    1.000
    H25      H        0.71980    0.03420    0.67990    1.000
    C23      C        0.79760    0.03471    0.70832    1.000
    H26      H        0.81670    0.03440    0.67930    1.000
    C24      C        0.96470    0.05769    0.90602    1.000
    C25      C        0.96550    0.04645    0.95610    1.000
    H27      H        0.94230    0.06710    0.97650    1.000
    C26      C        0.03070    0.97530    0.94235    1.000
    H28      H        0.05270    0.94520    0.95290    1.000
    C27      C        0.02916    0.98890    0.89412    1.000
    H29      H        0.05090    0.96710    0.87350    1.000
    C28      C        0.92740    0.10740    0.88643    1.000
    H30      H        0.93210    0.11020    0.85250    1.000
    H31      H        0.93890    0.14230    0.90110    1.000
    H32      H        0.88830    0.10020    0.89370    1.000
    O5       O        0.41548    0.46470    0.28933    1.000
    C29      C        0.23921    0.46533    0.29123    1.000
    H33      H        0.21980    0.46580    0.32010    1.000
    C30      C        0.29760    0.46529    0.29168    1.000
    H34      H        0.31670    0.46560    0.32070    1.000
    C31      C        0.46470    0.44231    0.09398    1.000
    C32      C        0.46550    0.45355    0.04390    1.000
    H35      H        0.44230    0.43290    0.02350    1.000
    C33      C        0.53070    0.52470    0.05765    1.000
    H36      H        0.55270    0.55480    0.04710    1.000
    C34      C        0.52916    0.51110    0.10588    1.000
    H37      H        0.55090    0.53290    0.12650    1.000
    C35      C        0.42740    0.39260    0.11357    1.000
    H38      H        0.43210    0.38980    0.14750    1.000
    H39      H        0.43890    0.35770    0.09890    1.000
    H40      H        0.38830    0.39980    0.10630    1.000
    O6       O        0.91548    0.96470    0.28933    1.000
    C36      C        0.73921    0.96533    0.29123    1.000
    H41      H        0.71980    0.96580    0.32010    1.000
    C37      C        0.79760    0.96529    0.29168    1.000
    H42      H        0.81670    0.96560    0.32070    1.000
    C38      C        0.96470    0.94231    0.09398    1.000
    C39      C        0.96550    0.95355    0.04390    1.000
    H43      H        0.94230    0.93290    0.02350    1.000
    C40      C        0.03070    0.02470    0.05765    1.000
    H44      H        0.05270    0.05480    0.04710    1.000
    C41      C        0.02916    0.01110    0.10588    1.000
    H45      H        0.05090    0.03290    0.12650    1.000
    C42      C        0.92740    0.89260    0.11357    1.000
    H46      H        0.93210    0.88980    0.14750    1.000
    H47      H        0.93890    0.85770    0.09890    1.000
    H48      H        0.88830    0.89980    0.10630    1.000
    O7       O        0.58452    0.53530    0.78933    1.000
    C43      C        0.76079    0.53467    0.79123    1.000
    H49      H        0.78020    0.53420    0.82010    1.000
    C44      C        0.70240    0.53471    0.79168    1.000
    H50      H        0.68330    0.53440    0.82070    1.000
    C45      C        0.53530    0.55769    0.59398    1.000
    C46      C        0.53450    0.54645    0.54390    1.000
    H51      H        0.55770    0.56710    0.52350    1.000
    C47      C        0.46930    0.47530    0.55765    1.000
    H52      H        0.44730    0.44520    0.54710    1.000
    C48      C        0.47084    0.48890    0.60588    1.000
    H53      H        0.44910    0.46710    0.62650    1.000
    C49      C        0.57260    0.60740    0.61357    1.000
    H54      H        0.56790    0.61020    0.64750    1.000
    H55      H        0.56110    0.64230    0.59890    1.000
    H56      H        0.61170    0.60020    0.60630    1.000
    O8       O        0.08452    0.03530    0.78933    1.000
    C50      C        0.26079    0.03467    0.79123    1.000
    H57      H        0.28020    0.03420    0.82010    1.000
    C51      C        0.20240    0.03471    0.79168    1.000
    H58      H        0.18330    0.03440    0.82070    1.000
    C52      C        0.03530    0.05769    0.59398    1.000
    C53      C        0.03450    0.04645    0.54390    1.000
    H59      H        0.05770    0.06710    0.52350    1.000
    C54      C        0.96930    0.97530    0.55765    1.000
    H60      H        0.94730    0.94520    0.54710    1.000
    C55      C        0.97084    0.98890    0.60588    1.000
    H61      H        0.94910    0.96710    0.62650    1.000
    C56      C        0.07260    0.10740    0.61357    1.000
    H62      H        0.06790    0.11020    0.64750    1.000
    H63      H        0.06110    0.14230    0.59890    1.000
    H64      H        0.11170    0.10020    0.60630    1.000
    O9       O        0.41548    0.53530    0.78933    1.000
    C57      C        0.23921    0.53467    0.79123    1.000
    H65      H        0.21980    0.53420    0.82010    1.000
    C58      C        0.29760    0.53471    0.79168    1.000
    H66      H        0.31670    0.53440    0.82070    1.000
    C59      C        0.46470    0.55769    0.59398    1.000
    C60      C        0.46550    0.54645    0.54390    1.000
    H67      H        0.44230    0.56710    0.52350    1.000
    C61      C        0.53070    0.47530    0.55765    1.000
    H68      H        0.55270    0.44520    0.54710    1.000
    C62      C        0.52916    0.48890    0.60588    1.000
    H69      H        0.55090    0.46710    0.62650    1.000
    C63      C        0.42740    0.60740    0.61357    1.000
    H70      H        0.43210    0.61020    0.64750    1.000
    H71      H        0.43890    0.64230    0.59890    1.000
    H72      H        0.38830    0.60020    0.60630    1.000
    O10      O        0.91548    0.03530    0.78933    1.000
    C64      C        0.73921    0.03467    0.79123    1.000
    H73      H        0.71980    0.03420    0.82010    1.000
    C65      C        0.79760    0.03471    0.79168    1.000
    H74      H        0.81670    0.03440    0.82070    1.000
    C66      C        0.96470    0.05769    0.59398    1.000
    C67      C        0.96550    0.04645    0.54390    1.000
    H75      H        0.94230    0.06710    0.52350    1.000
    C68      C        0.03070    0.97530    0.55765    1.000
    H76      H        0.05270    0.94520    0.54710    1.000
    C69      C        0.02916    0.98890    0.60588    1.000
    H77      H        0.05090    0.96710    0.62650    1.000
    C70      C        0.92740    0.10740    0.61357    1.000
    H78      H        0.93210    0.11020    0.64750    1.000
    H79      H        0.93890    0.14230    0.59890    1.000
    H80      H        0.88830    0.10020    0.60630    1.000
    O11      O        0.58452    0.46470    0.28933    1.000
    C71      C        0.76079    0.46533    0.29123    1.000
    H81      H        0.78020    0.46580    0.32010    1.000
    C72      C        0.70240    0.46529    0.29168    1.000
    H82      H        0.68330    0.46560    0.32070    1.000
    C73      C        0.53530    0.44231    0.09398    1.000
    C74      C        0.53450    0.45355    0.04390    1.000
    H83      H        0.55770    0.43290    0.02350    1.000
    C75      C        0.46930    0.52470    0.05765    1.000
    H84      H        0.44730    0.55480    0.04710    1.000
    C76      C        0.47084    0.51110    0.10588    1.000
    H85      H        0.44910    0.53290    0.12650    1.000
    C77      C        0.57260    0.39260    0.11357    1.000
    H86      H        0.56790    0.38980    0.14750    1.000
    H87      H        0.56110    0.35770    0.09890    1.000
    H88      H        0.61170    0.39980    0.10630    1.000
    O12      O        0.08452    0.96470    0.28933    1.000
    C78      C        0.26079    0.96533    0.29123    1.000
    H89      H        0.28020    0.96580    0.32010    1.000
    C79      C        0.20240    0.96529    0.29168    1.000
    H90      H        0.18330    0.96560    0.32070    1.000
    C80      C        0.03530    0.94231    0.09398    1.000
    C81      C        0.03450    0.95355    0.04390    1.000
    H91      H        0.05770    0.93290    0.02350    1.000
    C82      C        0.96930    0.02470    0.05765    1.000
    H92      H        0.94730    0.05480    0.04710    1.000
    C83      C        0.97084    0.01110    0.10588    1.000
    H93      H        0.94910    0.03290    0.12650    1.000
    C84      C        0.07260    0.89260    0.11357    1.000
    H94      H        0.06790    0.88980    0.14750    1.000
    H95      H        0.06110    0.85770    0.09890    1.000
    H96      H        0.11170    0.89980    0.10630    1.000
    O13      O        0.58452    0.53530    0.71067    1.000
    C85      C        0.76079    0.53467    0.70877    1.000
    H97      H        0.78020    0.53420    0.67990    1.000
    C86      C        0.70240    0.53471    0.70832    1.000
    H98      H        0.68330    0.53440    0.67930    1.000
    C87      C        0.53530    0.55769    0.90602    1.000
    C88      C        0.53450    0.54645    0.95610    1.000
    H99      H        0.55770    0.56710    0.97650    1.000
    C89      C        0.46930    0.47530    0.94235    1.000
    H100     H        0.44730    0.44520    0.95290    1.000
    C90      C        0.47084    0.48890    0.89412    1.000
    H101     H        0.44910    0.46710    0.87350    1.000
    C91      C        0.57260    0.60740    0.88643    1.000
    H102     H        0.56790    0.61020    0.85250    1.000
    H103     H        0.56110    0.64230    0.90110    1.000
    H104     H        0.61170    0.60020    0.89370    1.000
    O14      O        0.08452    0.03530    0.71067    1.000
    C92      C        0.26079    0.03467    0.70877    1.000
    H105     H        0.28020    0.03420    0.67990    1.000
    C93      C        0.20240    0.03471    0.70832    1.000
    H106     H        0.18330    0.03440    0.67930    1.000
    C94      C        0.03530    0.05769    0.90602    1.000
    C95      C        0.03450    0.04645    0.95610    1.000
    H107     H        0.05770    0.06710    0.97650    1.000
    C96      C        0.96930    0.97530    0.94235    1.000
    H108     H        0.94730    0.94520    0.95290    1.000
    C97      C        0.97084    0.98890    0.89412    1.000
    H109     H        0.94910    0.96710    0.87350    1.000
    C98      C        0.07260    0.10740    0.88643    1.000
    H110     H        0.06790    0.11020    0.85250    1.000
    H111     H        0.06110    0.14230    0.90110    1.000
    H112     H        0.11170    0.10020    0.89370    1.000
    O15      O        0.41548    0.46470    0.21067    1.000
    C99      C        0.23921    0.46533    0.20877    1.000
    H113     H        0.21980    0.46580    0.17990    1.000
    C100     C        0.29760    0.46529    0.20832    1.000
    H114     H        0.31670    0.46560    0.17930    1.000
    C101     C        0.46470    0.44231    0.40602    1.000
    C102     C        0.46550    0.45355    0.45610    1.000
    H115     H        0.44230    0.43290    0.47650    1.000
    C103     C        0.53070    0.52470    0.44235    1.000
    H116     H        0.55270    0.55480    0.45290    1.000
    C104     C        0.52916    0.51110    0.39412    1.000
    H117     H        0.55090    0.53290    0.37350    1.000
    C105     C        0.42740    0.39260    0.38643    1.000
    H118     H        0.43210    0.38980    0.35250    1.000
    H119     H        0.43890    0.35770    0.40110    1.000
    H120     H        0.38830    0.39980    0.39370    1.000
    O16      O        0.91548    0.96470    0.21067    1.000
    C106     C        0.73921    0.96533    0.20877    1.000
    H121     H        0.71980    0.96580    0.17990    1.000
    C107     C        0.79760    0.96529    0.20832    1.000
    H122     H        0.81670    0.96560    0.17930    1.000
    C108     C        0.96470    0.94231    0.40602    1.000
    C109     C        0.96550    0.95355    0.45610    1.000
    H123     H        0.94230    0.93290    0.47650    1.000
    C110     C        0.03070    0.02470    0.44235    1.000
    H124     H        0.05270    0.05480    0.45290    1.000
    C111     C        0.02916    0.01110    0.39412    1.000
    H125     H        0.05090    0.03290    0.37350    1.000
    C112     C        0.92740    0.89260    0.38643    1.000
    H126     H        0.93210    0.88980    0.35250    1.000
    H127     H        0.93890    0.85770    0.40110    1.000
    H128     H        0.88830    0.89980    0.39370    1.000
    Zn1      Zn       0.00000    0.46475    0.23716    1.000
    O17      O        0.00000    0.04919    0.28937    1.000
    O18      O        0.00000    0.87999    0.28913    1.000
    C113     C        0.00000    0.22554    0.29155    1.000
    H129     H        0.00000    0.24510    0.32030    1.000
    C114     C        0.00000    0.16660    0.29195    1.000
    H130     H        0.00000    0.14730    0.32090    1.000
    C115     C        0.00000    0.70370    0.29108    1.000
    H131     H        0.00000    0.68420    0.31990    1.000
    C116     C        0.00000    0.76228    0.29197    1.000
    H132     H        0.00000    0.78150    0.32090    1.000
    Zn2      Zn       0.50000    0.96475    0.23716    1.000
    O19      O        0.50000    0.54919    0.28937    1.000
    O20      O        0.50000    0.37999    0.28913    1.000
    C117     C        0.50000    0.72554    0.29155    1.000
    H133     H        0.50000    0.74510    0.32030    1.000
    C118     C        0.50000    0.66660    0.29195    1.000
    H134     H        0.50000    0.64730    0.32090    1.000
    C119     C        0.50000    0.20370    0.29108    1.000
    H135     H        0.50000    0.18420    0.31990    1.000
    C120     C        0.50000    0.26228    0.29197    1.000
    H136     H        0.50000    0.28150    0.32090    1.000
    Zn3      Zn       0.00000    0.53525    0.73716    1.000
    O21      O        0.00000    0.95081    0.78937    1.000
    O22      O        0.00000    0.12001    0.78913    1.000
    C121     C        0.00000    0.77446    0.79155    1.000
    H137     H        0.00000    0.75490    0.82030    1.000
    C122     C        0.00000    0.83340    0.79195    1.000
    H138     H        0.00000    0.85270    0.82090    1.000
    C123     C        0.00000    0.29630    0.79108    1.000
    H139     H        0.00000    0.31580    0.81990    1.000
    C124     C        0.00000    0.23772    0.79197    1.000
    H140     H        0.00000    0.21850    0.82090    1.000
    Zn4      Zn       0.50000    0.03525    0.73716    1.000
    O23      O        0.50000    0.45081    0.78937    1.000
    O24      O        0.50000    0.62001    0.78913    1.000
    C125     C        0.50000    0.27446    0.79155    1.000
    H141     H        0.50000    0.25490    0.82030    1.000
    C126     C        0.50000    0.33340    0.79195    1.000
    H142     H        0.50000    0.35270    0.82090    1.000
    C127     C        0.50000    0.79630    0.79108    1.000
    H143     H        0.50000    0.81580    0.81990    1.000
    C128     C        0.50000    0.73772    0.79197    1.000
    H144     H        0.50000    0.71850    0.82090    1.000
    Zn5      Zn       0.00000    0.46475    0.26284    1.000
    O25      O        0.00000    0.04919    0.21063    1.000
    O26      O        0.00000    0.87999    0.21087    1.000
    C129     C        0.00000    0.22554    0.20845    1.000
    H145     H        0.00000    0.24510    0.17970    1.000
    C130     C        0.00000    0.16660    0.20805    1.000
    H146     H        0.00000    0.14730    0.17910    1.000
    C131     C        0.00000    0.70370    0.20892    1.000
    H147     H        0.00000    0.68420    0.18010    1.000
    C132     C        0.00000    0.76228    0.20803    1.000
    H148     H        0.00000    0.78150    0.17910    1.000
    Zn6      Zn       0.50000    0.96475    0.26284    1.000
    O27      O        0.50000    0.54919    0.21063    1.000
    O28      O        0.50000    0.37999    0.21087    1.000
    C133     C        0.50000    0.72554    0.20845    1.000
    H149     H        0.50000    0.74510    0.17970    1.000
    C134     C        0.50000    0.66660    0.20805    1.000
    H150     H        0.50000    0.64730    0.17910    1.000
    C135     C        0.50000    0.20370    0.20892    1.000
    H151     H        0.50000    0.18420    0.18010    1.000
    C136     C        0.50000    0.26228    0.20803    1.000
    H152     H        0.50000    0.28150    0.17910    1.000
    Zn7      Zn       0.00000    0.53525    0.76284    1.000
    O29      O        0.00000    0.95081    0.71063    1.000
    O30      O        0.00000    0.12001    0.71087    1.000
    C137     C        0.00000    0.77446    0.70845    1.000
    H153     H        0.00000    0.75490    0.67970    1.000
    C138     C        0.00000    0.83340    0.70805    1.000
    H154     H        0.00000    0.85270    0.67910    1.000
    C139     C        0.00000    0.29630    0.70892    1.000
    H155     H        0.00000    0.31580    0.68010    1.000
    C140     C        0.00000    0.23772    0.70803    1.000
    H156     H        0.00000    0.21850    0.67910    1.000
    Zn8      Zn       0.50000    0.03525    0.76284    1.000
    O31      O        0.50000    0.45081    0.71063    1.000
    O32      O        0.50000    0.62001    0.71087    1.000
    C141     C        0.50000    0.27446    0.70845    1.000
    H157     H        0.50000    0.25490    0.67970    1.000
    C142     C        0.50000    0.33340    0.70805    1.000
    H158     H        0.50000    0.35270    0.67910    1.000
    C143     C        0.50000    0.79630    0.70892    1.000
    H159     H        0.50000    0.81580    0.68010    1.000
    C144     C        0.50000    0.73772    0.70803    1.000
    H160     H        0.50000    0.71850    0.67910    1.000
    Zn9      Zn       0.50000    0.46414    0.30335    1.000
    N1       N        0.50000    0.47072    0.37609    1.000
    C145     C        0.50000    0.49411    0.47399    1.000
    Zn10     Zn       0.00000    0.96414    0.30335    1.000
    N2       N        0.00000    0.97072    0.37609    1.000
    C146     C        0.00000    0.99411    0.47399    1.000
    Zn11     Zn       0.50000    0.53586    0.80335    1.000
    N3       N        0.50000    0.52928    0.87609    1.000
    C147     C        0.50000    0.50589    0.97399    1.000
    Zn12     Zn       0.00000    0.03586    0.80335    1.000
    N4       N        0.00000    0.02928    0.87609    1.000
    C148     C        0.00000    0.00589    0.97399    1.000
    Zn13     Zn       0.50000    0.46414    0.19665    1.000
    N5       N        0.50000    0.47072    0.12391    1.000
    C149     C        0.50000    0.49411    0.02601    1.000
    Zn14     Zn       0.00000    0.96414    0.19665    1.000
    N6       N        0.00000    0.97072    0.12391    1.000
    C150     C        0.00000    0.99411    0.02601    1.000
    Zn15     Zn       0.50000    0.53586    0.69665    1.000
    N7       N        0.50000    0.52928    0.62391    1.000
    C151     C        0.50000    0.50589    0.52601    1.000
    Zn16     Zn       0.00000    0.03586    0.69665    1.000
    N8       N        0.00000    0.02928    0.62391    1.000
    C152     C        0.00000    0.00589    0.52601    1.000
    N9       N        0.93883    0.40368    0.25000    1.000
    N10      N        0.93891    0.52560    0.25000    1.000
    C153     C        0.94738    0.34578    0.25000    1.000
    C154     C        0.89334    0.31793    0.25000    1.000
    H161     H        0.88730    0.27900    0.25000    1.000
    C155     C        0.85328    0.35799    0.25000    1.000
    H162     H        0.81430    0.35210    0.25000    1.000
    C156     C        0.88180    0.41197    0.25000    1.000
    C157     C        0.85438    0.46467    0.25000    1.000
    C158     C        0.88129    0.51716    0.25000    1.000
    C159     C        0.85286    0.57135    0.25000    1.000
    H163     H        0.81390    0.57750    0.25000    1.000
    C160     C        0.89369    0.61142    0.25000    1.000
    H164     H        0.88810    0.65040    0.25000    1.000
    C161     C        0.94742    0.58274    0.25000    1.000
    C162     C        0.79084    0.46477    0.25000    1.000
    C163     C        0.67222    0.46475    0.25000    1.000
    C164     C        0.60867    0.46494    0.25000    1.000
    N11      N        0.43883    0.90368    0.25000    1.000
    N12      N        0.43891    0.02560    0.25000    1.000
    C165     C        0.44738    0.84578    0.25000    1.000
    C166     C        0.39334    0.81793    0.25000    1.000
    H165     H        0.38730    0.77900    0.25000    1.000
    C167     C        0.35328    0.85799    0.25000    1.000
    H166     H        0.31430    0.85210    0.25000    1.000
    C168     C        0.38180    0.91197    0.25000    1.000
    C169     C        0.35438    0.96467    0.25000    1.000
    C170     C        0.38129    0.01716    0.25000    1.000
    C171     C        0.35286    0.07135    0.25000    1.000
    H167     H        0.31390    0.07750    0.25000    1.000
    C172     C        0.39369    0.11142    0.25000    1.000
    H168     H        0.38810    0.15040    0.25000    1.000
    C173     C        0.44742    0.08274    0.25000    1.000
    C174     C        0.29084    0.96477    0.25000    1.000
    C175     C        0.17222    0.96475    0.25000    1.000
    C176     C        0.10867    0.96494    0.25000    1.000
    N13      N        0.06117    0.59632    0.75000    1.000
    N14      N        0.06109    0.47440    0.75000    1.000
    C177     C        0.05262    0.65422    0.75000    1.000
    C178     C        0.10666    0.68207    0.75000    1.000
    H169     H        0.11270    0.72100    0.75000    1.000
    C179     C        0.14672    0.64201    0.75000    1.000
    H170     H        0.18570    0.64790    0.75000    1.000
    C180     C        0.11820    0.58803    0.75000    1.000
    C181     C        0.14562    0.53533    0.75000    1.000
    C182     C        0.11871    0.48284    0.75000    1.000
    C183     C        0.14714    0.42865    0.75000    1.000
    H171     H        0.18610    0.42250    0.75000    1.000
    C184     C        0.10631    0.38858    0.75000    1.000
    H172     H        0.11190    0.34960    0.75000    1.000
    C185     C        0.05258    0.41726    0.75000    1.000
    C186     C        0.20916    0.53523    0.75000    1.000
    C187     C        0.32778    0.53525    0.75000    1.000
    C188     C        0.39133    0.53506    0.75000    1.000
    N15      N        0.56117    0.09632    0.75000    1.000
    N16      N        0.56109    0.97440    0.75000    1.000
    C189     C        0.55262    0.15422    0.75000    1.000
    C190     C        0.60666    0.18207    0.75000    1.000
    H173     H        0.61270    0.22100    0.75000    1.000
    C191     C        0.64672    0.14201    0.75000    1.000
    H174     H        0.68570    0.14790    0.75000    1.000
    C192     C        0.61820    0.08803    0.75000    1.000
    C193     C        0.64562    0.03533    0.75000    1.000
    C194     C        0.61871    0.98284    0.75000    1.000
    C195     C        0.64714    0.92865    0.75000    1.000
    H175     H        0.68610    0.92250    0.75000    1.000
    C196     C        0.60631    0.88858    0.75000    1.000
    H176     H        0.61190    0.84960    0.75000    1.000
    C197     C        0.55258    0.91726    0.75000    1.000
    C198     C        0.70916    0.03523    0.75000    1.000
    C199     C        0.82778    0.03525    0.75000    1.000
    C200     C        0.89133    0.03506    0.75000    1.000
    N17      N        0.06117    0.40368    0.25000    1.000
    N18      N        0.06109    0.52560    0.25000    1.000
    C201     C        0.05262    0.34578    0.25000    1.000
    C202     C        0.10666    0.31793    0.25000    1.000
    H177     H        0.11270    0.27900    0.25000    1.000
    C203     C        0.14672    0.35799    0.25000    1.000
    H178     H        0.18570    0.35210    0.25000    1.000
    C204     C        0.11820    0.41197    0.25000    1.000
    C205     C        0.14562    0.46467    0.25000    1.000
    C206     C        0.11871    0.51716    0.25000    1.000
    C207     C        0.14714    0.57135    0.25000    1.000
    H179     H        0.18610    0.57750    0.25000    1.000
    C208     C        0.10631    0.61142    0.25000    1.000
    H180     H        0.11190    0.65040    0.25000    1.000
    C209     C        0.05258    0.58274    0.25000    1.000
    C210     C        0.20916    0.46477    0.25000    1.000
    C211     C        0.32778    0.46475    0.25000    1.000
    C212     C        0.39133    0.46494    0.25000    1.000
    N19      N        0.56117    0.90368    0.25000    1.000
    N20      N        0.56109    0.02560    0.25000    1.000
    C213     C        0.55262    0.84578    0.25000    1.000
    C214     C        0.60666    0.81793    0.25000    1.000
    H181     H        0.61270    0.77900    0.25000    1.000
    C215     C        0.64672    0.85799    0.25000    1.000
    H182     H        0.68570    0.85210    0.25000    1.000
    C216     C        0.61820    0.91197    0.25000    1.000
    C217     C        0.64562    0.96467    0.25000    1.000
    C218     C        0.61871    0.01716    0.25000    1.000
    C219     C        0.64714    0.07135    0.25000    1.000
    H183     H        0.68610    0.07750    0.25000    1.000
    C220     C        0.60631    0.11142    0.25000    1.000
    H184     H        0.61190    0.15040    0.25000    1.000
    C221     C        0.55258    0.08274    0.25000    1.000
    C222     C        0.70916    0.96477    0.25000    1.000
    C223     C        0.82778    0.96475    0.25000    1.000
    C224     C        0.89133    0.96494    0.25000    1.000
    N21      N        0.93883    0.59632    0.75000    1.000
    N22      N        0.93891    0.47440    0.75000    1.000
    C225     C        0.94738    0.65422    0.75000    1.000
    C226     C        0.89334    0.68207    0.75000    1.000
    H185     H        0.88730    0.72100    0.75000    1.000
    C227     C        0.85328    0.64201    0.75000    1.000
    H186     H        0.81430    0.64790    0.75000    1.000
    C228     C        0.88180    0.58803    0.75000    1.000
    C229     C        0.85438    0.53533    0.75000    1.000
    C230     C        0.88129    0.48284    0.75000    1.000
    C231     C        0.85286    0.42865    0.75000    1.000
    H187     H        0.81390    0.42250    0.75000    1.000
    C232     C        0.89369    0.38858    0.75000    1.000
    H188     H        0.88810    0.34960    0.75000    1.000
    C233     C        0.94742    0.41726    0.75000    1.000
    C234     C        0.79084    0.53523    0.75000    1.000
    C235     C        0.67222    0.53525    0.75000    1.000
    C236     C        0.60867    0.53506    0.75000    1.000
    N23      N        0.43883    0.09632    0.75000    1.000
    N24      N        0.43891    0.97440    0.75000    1.000
    C237     C        0.44738    0.15422    0.75000    1.000
    C238     C        0.39334    0.18207    0.75000    1.000
    H189     H        0.38730    0.22100    0.75000    1.000
    C239     C        0.35328    0.14201    0.75000    1.000
    H190     H        0.31430    0.14790    0.75000    1.000
    C240     C        0.38180    0.08803    0.75000    1.000
    C241     C        0.35438    0.03533    0.75000    1.000
    C242     C        0.38129    0.98284    0.75000    1.000
    C243     C        0.35286    0.92865    0.75000    1.000
    H191     H        0.31390    0.92250    0.75000    1.000
    C244     C        0.39369    0.88858    0.75000    1.000
    H192     H        0.38810    0.84960    0.75000    1.000
    C245     C        0.44742    0.91726    0.75000    1.000
    C246     C        0.29084    0.03523    0.75000    1.000
    C247     C        0.17222    0.03525    0.75000    1.000
    C248     C        0.10867    0.03506    0.75000    1.000
    C249     C        0.00000    0.31942    0.25000    1.000
    C250     C        0.00000    0.25509    0.25000    1.000
    C251     C        0.00000    0.13671    0.25000    1.000
    C252     C        0.00000    0.07319    0.25000    1.000
    C253     C        0.00000    0.61081    0.25000    1.000
    C254     C        0.00000    0.67349    0.25000    1.000
    C255     C        0.00000    0.79186    0.25000    1.000
    C256     C        0.00000    0.85562    0.25000    1.000
    C257     C        0.50000    0.81942    0.25000    1.000
    C258     C        0.50000    0.75509    0.25000    1.000
    C259     C        0.50000    0.63671    0.25000    1.000
    C260     C        0.50000    0.57319    0.25000    1.000
    C261     C        0.50000    0.11081    0.25000    1.000
    C262     C        0.50000    0.17349    0.25000    1.000
    C263     C        0.50000    0.29186    0.25000    1.000
    C264     C        0.50000    0.35562    0.25000    1.000
    C265     C        0.00000    0.68058    0.75000    1.000
    C266     C        0.00000    0.74491    0.75000    1.000
    C267     C        0.00000    0.86329    0.75000    1.000
    C268     C        0.00000    0.92681    0.75000    1.000
    C269     C        0.00000    0.38919    0.75000    1.000
    C270     C        0.00000    0.32651    0.75000    1.000
    C271     C        0.00000    0.20814    0.75000    1.000
    C272     C        0.00000    0.14438    0.75000    1.000
    C273     C        0.50000    0.18058    0.75000    1.000
    C274     C        0.50000    0.24491    0.75000    1.000
    C275     C        0.50000    0.36329    0.75000    1.000
    C276     C        0.50000    0.42681    0.75000    1.000
    C277     C        0.50000    0.88919    0.75000    1.000
    C278     C        0.50000    0.82651    0.75000    1.000
    C279     C        0.50000    0.70814    0.75000    1.000
    C280     C        0.50000    0.64438    0.75000    1.000
