# CIF file generated by openbabel 3.1.0, see https://openbabel.org
data_I
_chemical_name_common 'image0'
_cell_length_a 18.777
_cell_length_b 8.7423
_cell_length_c 29.733
_cell_angle_alpha 90
_cell_angle_beta 90.225
_cell_angle_gamma 90
_space_group_name_H-M_alt 'P 1'
_space_group_name_Hall 'P 1'
loop_
    _symmetry_equiv_pos_as_xyz
    x,y,z
loop_
    _atom_site_label
    _atom_site_type_symbol
    _atom_site_fract_x
    _atom_site_fract_y
    _atom_site_fract_z
    _atom_site_occupancy
    Zn1      Zn       0.18267    0.72069    0.24934    1.000
    O1       O        0.10890    0.41880    0.23759    1.000
    C1       C        0.12770    0.47440    0.20210    1.000
    O2       O        0.14720    0.61310    0.19594    1.000
    C2       C        0.13060    0.37850    0.15920    1.000
    H1       H        0.10610    0.43290    0.13530    1.000
    H2       H        0.17990    0.36620    0.15030    1.000
    O3       O        0.09910    0.23120    0.16432    1.000
    C3       C        0.02590    0.22590    0.16480    1.000
    O4       O        0.28870    0.67040    0.23904    1.000
    C4       C        0.98120    0.35110    0.16150    1.000
    H3       H        0.00020    0.44930    0.16100    1.000
    O5       O        0.28500    0.43080    0.26437    1.000
    C5       C        0.90760    0.33100    0.15900    1.000
    O6       O        0.41920    0.38220    0.24594    1.000
    C6       C        0.87890    0.18400    0.16090    1.000
    O7       O        0.67370    0.78090    0.92648    1.000
    C7       C        0.92340    0.05690    0.16750    1.000
    O8       O        0.68260    0.63590    0.84646    1.000
    C8       C        0.99700    0.07900    0.16880    1.000
    H4       H        0.02710    0.99540    0.17230    1.000
    O9       O        0.66590    0.85670    0.80962    1.000
    C9       C        0.86130    0.46880    0.15320    1.000
    H5       H        0.89060    0.55710    0.14810    1.000
    H6       H        0.83350    0.48380    0.17980    1.000
    H7       H        0.83020    0.45380    0.12790    1.000
    C10      C        0.89500    0.89520    0.17200    1.000
    H8       H        0.88010    0.85850    0.14300    1.000
    H9       H        0.85510    0.89470    0.19210    1.000
    H10      H        0.93170    0.82980    0.18370    1.000
    C11      C        0.80130    0.15870    0.15020    1.000
    C12      C        0.74500    0.20470    0.17750    1.000
    H11      H        0.75490    0.24980    0.20520    1.000
    C13      C        0.67510    0.18490    0.16440    1.000
    C14      C        0.66070    0.11250    0.12280    1.000
    H12      H        0.61380    0.09590    0.11400    1.000
    C15      C        0.71640    0.06560    0.09490    1.000
    C16      C        0.78630    0.08810    0.10890    1.000
    H13      H        0.82360    0.05600    0.09070    1.000
    C17      C        0.61250    0.23890    0.19090    1.000
    C18      C        0.59820    0.39530    0.19340    1.000
    C19      C        0.53310    0.44700    0.21240    1.000
    H14      H        0.52290    0.55100    0.21390    1.000
    C20      C        0.48560    0.34140    0.22860    1.000
    C21      C        0.50050    0.18590    0.22830    1.000
    H15      H        0.46830    0.11660    0.24040    1.000
    C22      C        0.56440    0.13410    0.20960    1.000
    C23      C        0.57810    0.96220    0.20920    1.000
    H16      H        0.55880    0.91860    0.18220    1.000
    H17      H        0.55570    0.91620    0.23480    1.000
    H18      H        0.62850    0.94360    0.21050    1.000
    C24      C        0.64870    0.51340    0.17500    1.000
    H19      H        0.65980    0.48930    0.14430    1.000
    H20      H        0.69170    0.51370    0.19260    1.000
    H21      H        0.62680    0.61260    0.17640    1.000
    C25      C        0.39510    0.53190    0.23570    1.000
    H22      H        0.40200    0.55300    0.20400    1.000
    H23      H        0.42200    0.60640    0.25290    1.000
    C26      C        0.31630    0.54350    0.24730    1.000
    C27      C        0.70280    0.99210    0.04990    1.000
    C28      C        0.70930    0.83190    0.04480    1.000
    C29      C        0.69900    0.76620    0.00300    1.000
    H24      H        0.70360    0.66100    0.99950    1.000
    C30      C        0.68160    0.85730    0.96590    1.000
    C31      C        0.67390    0.01450    0.97090    1.000
    H25      H        0.66180    0.07480    0.94630    1.000
    C32      C        0.68440    0.08200    0.01330    1.000
    C33      C        0.67850    0.25450    0.01670    1.000
    H26      H        0.66630    0.29610    0.98780    1.000
    H27      H        0.72330    0.29610    0.02650    1.000
    H28      H        0.64220    0.28060    0.03800    1.000
    C34      C        0.73050    0.73440    0.08470    1.000
    H29      H        0.72860    0.62830    0.07640    1.000
    H30      H        0.69820    0.75280    0.10910    1.000
    H31      H        0.77800    0.76030    0.09400    1.000
    C35      C        0.66340    0.87290    0.88690    1.000
    H32      H        0.69840    0.95450    0.88630    1.000
    H33      H        0.61640    0.91880    0.88740    1.000
    C36      C        0.67110    0.77420    0.84520    1.000
    Zn2      Zn       0.31733    0.22069    0.25066    1.000
    O10      O        0.39110    0.91880    0.26241    1.000
    C37      C        0.37230    0.97440    0.29790    1.000
    O11      O        0.35280    0.11310    0.30406    1.000
    C38      C        0.36940    0.87850    0.34080    1.000
    H34      H        0.39390    0.93290    0.36470    1.000
    H35      H        0.32010    0.86620    0.34970    1.000
    O12      O        0.40090    0.73120    0.33568    1.000
    C39      C        0.47410    0.72590    0.33520    1.000
    O13      O        0.21130    0.17040    0.26096    1.000
    C40      C        0.51880    0.85110    0.33850    1.000
    H36      H        0.49980    0.94930    0.33900    1.000
    O14      O        0.21500    0.93080    0.23563    1.000
    C41      C        0.59240    0.83100    0.34100    1.000
    O15      O        0.08080    0.88220    0.25406    1.000
    C42      C        0.62110    0.68400    0.33910    1.000
    O16      O        0.82630    0.28090    0.57352    1.000
    C43      C        0.57660    0.55690    0.33250    1.000
    O17      O        0.81740    0.13590    0.65354    1.000
    C44      C        0.50300    0.57900    0.33120    1.000
    H37      H        0.47290    0.49540    0.32770    1.000
    O18      O        0.83410    0.35670    0.69038    1.000
    C45      C        0.63870    0.96880    0.34680    1.000
    H38      H        0.60940    0.05710    0.35190    1.000
    H39      H        0.66650    0.98380    0.32020    1.000
    H40      H        0.66980    0.95380    0.37210    1.000
    C46      C        0.60500    0.39520    0.32800    1.000
    H41      H        0.61990    0.35850    0.35700    1.000
    H42      H        0.64490    0.39470    0.30790    1.000
    H43      H        0.56830    0.32980    0.31630    1.000
    C47      C        0.69870    0.65870    0.34980    1.000
    C48      C        0.75500    0.70470    0.32250    1.000
    H44      H        0.74510    0.74980    0.29480    1.000
    C49      C        0.82490    0.68490    0.33560    1.000
    C50      C        0.83930    0.61250    0.37720    1.000
    H45      H        0.88620    0.59590    0.38600    1.000
    C51      C        0.78360    0.56560    0.40510    1.000
    C52      C        0.71370    0.58810    0.39110    1.000
    H46      H        0.67640    0.55600    0.40930    1.000
    C53      C        0.88750    0.73890    0.30910    1.000
    C54      C        0.90180    0.89530    0.30660    1.000
    C55      C        0.96690    0.94700    0.28760    1.000
    H47      H        0.97710    0.05100    0.28610    1.000
    C56      C        0.01440    0.84140    0.27140    1.000
    C57      C        0.99950    0.68590    0.27170    1.000
    H48      H        0.03170    0.61660    0.25960    1.000
    C58      C        0.93560    0.63410    0.29040    1.000
    C59      C        0.92190    0.46220    0.29080    1.000
    H49      H        0.94120    0.41860    0.31780    1.000
    H50      H        0.94430    0.41620    0.26520    1.000
    H51      H        0.87150    0.44360    0.28950    1.000
    C60      C        0.85130    0.01340    0.32500    1.000
    H52      H        0.84020    0.98930    0.35570    1.000
    H53      H        0.80830    0.01370    0.30740    1.000
    H54      H        0.87320    0.11260    0.32360    1.000
    C61      C        0.10490    0.03190    0.26430    1.000
    H55      H        0.09800    0.05300    0.29600    1.000
    H56      H        0.07800    0.10640    0.24710    1.000
    C62      C        0.18370    0.04350    0.25270    1.000
    C63      C        0.79720    0.49210    0.45010    1.000
    C64      C        0.79070    0.33190    0.45520    1.000
    C65      C        0.80100    0.26620    0.49700    1.000
    H57      H        0.79640    0.16100    0.50050    1.000
    C66      C        0.81840    0.35730    0.53410    1.000
    C67      C        0.82610    0.51450    0.52910    1.000
    H58      H        0.83820    0.57480    0.55370    1.000
    C68      C        0.81560    0.58200    0.48670    1.000
    C69      C        0.82150    0.75450    0.48330    1.000
    H59      H        0.83370    0.79610    0.51220    1.000
    H60      H        0.77670    0.79610    0.47350    1.000
    H61      H        0.85780    0.78060    0.46200    1.000
    C70      C        0.76950    0.23440    0.41530    1.000
    H62      H        0.77140    0.12830    0.42360    1.000
    H63      H        0.80180    0.25280    0.39090    1.000
    H64      H        0.72200    0.26030    0.40600    1.000
    C71      C        0.83660    0.37290    0.61310    1.000
    H65      H        0.80160    0.45450    0.61370    1.000
    H66      H        0.88360    0.41880    0.61260    1.000
    C72      C        0.82890    0.27420    0.65480    1.000
    Zn3      Zn       0.81733    0.27931    0.75066    1.000
    O19      O        0.89110    0.58120    0.76241    1.000
    C73      C        0.87230    0.52560    0.79790    1.000
    O20      O        0.85280    0.38690    0.80406    1.000
    C74      C        0.86940    0.62150    0.84080    1.000
    H67      H        0.89390    0.56710    0.86470    1.000
    H68      H        0.82010    0.63380    0.84970    1.000
    O21      O        0.90090    0.76880    0.83568    1.000
    C75      C        0.97410    0.77410    0.83520    1.000
    O22      O        0.71130    0.32960    0.76096    1.000
    C76      C        0.01880    0.64890    0.83850    1.000
    H69      H        0.99980    0.55070    0.83900    1.000
    O23      O        0.71500    0.56920    0.73563    1.000
    C77      C        0.09240    0.66900    0.84100    1.000
    O24      O        0.58080    0.61780    0.75406    1.000
    C78      C        0.12110    0.81600    0.83910    1.000
    O25      O        0.32630    0.21910    0.07352    1.000
    C79      C        0.07660    0.94310    0.83250    1.000
    O26      O        0.31740    0.36410    0.15354    1.000
    C80      C        0.00300    0.92100    0.83120    1.000
    H70      H        0.97290    0.00460    0.82770    1.000
    O27      O        0.33410    0.14330    0.19038    1.000
    C81      C        0.13870    0.53120    0.84680    1.000
    H71      H        0.10940    0.44290    0.85190    1.000
    H72      H        0.16650    0.51620    0.82020    1.000
    H73      H        0.16980    0.54620    0.87210    1.000
    C82      C        0.10500    0.10480    0.82800    1.000
    H74      H        0.11990    0.14150    0.85700    1.000
    H75      H        0.14490    0.10530    0.80790    1.000
    H76      H        0.06830    0.17020    0.81630    1.000
    C83      C        0.19870    0.84130    0.84980    1.000
    C84      C        0.25500    0.79530    0.82250    1.000
    H77      H        0.24510    0.75020    0.79480    1.000
    C85      C        0.32490    0.81510    0.83560    1.000
    C86      C        0.33930    0.88750    0.87720    1.000
    H78      H        0.38620    0.90410    0.88600    1.000
    C87      C        0.28360    0.93440    0.90510    1.000
    C88      C        0.21370    0.91190    0.89110    1.000
    H79      H        0.17640    0.94400    0.90930    1.000
    C89      C        0.38750    0.76110    0.80910    1.000
    C90      C        0.40180    0.60470    0.80660    1.000
    C91      C        0.46690    0.55300    0.78760    1.000
    H80      H        0.47710    0.44900    0.78610    1.000
    C92      C        0.51440    0.65860    0.77140    1.000
    C93      C        0.49950    0.81410    0.77170    1.000
    H81      H        0.53170    0.88340    0.75960    1.000
    C94      C        0.43560    0.86590    0.79040    1.000
    C95      C        0.42190    0.03780    0.79080    1.000
    H82      H        0.44120    0.08140    0.81780    1.000
    H83      H        0.44430    0.08380    0.76520    1.000
    H84      H        0.37150    0.05640    0.78950    1.000
    C96      C        0.35130    0.48660    0.82500    1.000
    H85      H        0.34020    0.51070    0.85570    1.000
    H86      H        0.30830    0.48630    0.80740    1.000
    H87      H        0.37320    0.38740    0.82360    1.000
    C97      C        0.60490    0.46810    0.76430    1.000
    H88      H        0.59800    0.44700    0.79600    1.000
    H89      H        0.57800    0.39360    0.74710    1.000
    C98      C        0.68370    0.45650    0.75270    1.000
    C99      C        0.29720    0.00790    0.95010    1.000
    C100     C        0.29070    0.16810    0.95520    1.000
    C101     C        0.30100    0.23380    0.99700    1.000
    H90      H        0.29640    0.33900    0.00050    1.000
    C102     C        0.31840    0.14270    0.03410    1.000
    C103     C        0.32610    0.98550    0.02910    1.000
    H91      H        0.33820    0.92520    0.05370    1.000
    C104     C        0.31560    0.91800    0.98670    1.000
    C105     C        0.32150    0.74550    0.98330    1.000
    H92      H        0.33370    0.70390    0.01220    1.000
    H93      H        0.27670    0.70390    0.97350    1.000
    H94      H        0.35780    0.71940    0.96200    1.000
    C106     C        0.26950    0.26560    0.91530    1.000
    H95      H        0.27140    0.37170    0.92360    1.000
    H96      H        0.30180    0.24720    0.89090    1.000
    H97      H        0.22200    0.23970    0.90600    1.000
    C107     C        0.33660    0.12710    0.11310    1.000
    H98      H        0.30160    0.04550    0.11370    1.000
    H99      H        0.38360    0.08120    0.11260    1.000
    C108     C        0.32890    0.22580    0.15480    1.000
    Zn4      Zn       0.68267    0.77931    0.74934    1.000
    O28      O        0.60890    0.08120    0.73759    1.000
    C109     C        0.62770    0.02560    0.70210    1.000
    O29      O        0.64720    0.88690    0.69594    1.000
    C110     C        0.63060    0.12150    0.65920    1.000
    H100     H        0.60610    0.06710    0.63530    1.000
    H101     H        0.67990    0.13380    0.65030    1.000
    O30      O        0.59910    0.26880    0.66432    1.000
    C111     C        0.52590    0.27410    0.66480    1.000
    O31      O        0.78870    0.82960    0.73904    1.000
    C112     C        0.48120    0.14890    0.66150    1.000
    H102     H        0.50020    0.05070    0.66100    1.000
    O32      O        0.78500    0.06920    0.76437    1.000
    C113     C        0.40760    0.16900    0.65900    1.000
    O33      O        0.91920    0.11780    0.74594    1.000
    C114     C        0.37890    0.31600    0.66090    1.000
    O34      O        0.17370    0.71910    0.42648    1.000
    C115     C        0.42340    0.44310    0.66750    1.000
    O35      O        0.18260    0.86410    0.34646    1.000
    C116     C        0.49700    0.42100    0.66880    1.000
    H103     H        0.52710    0.50460    0.67230    1.000
    O36      O        0.16590    0.64330    0.30962    1.000
    C117     C        0.36130    0.03120    0.65320    1.000
    H104     H        0.39060    0.94290    0.64810    1.000
    H105     H        0.33350    0.01620    0.67980    1.000
    H106     H        0.33020    0.04620    0.62790    1.000
    C118     C        0.39500    0.60480    0.67200    1.000
    H107     H        0.38010    0.64150    0.64300    1.000
    H108     H        0.35510    0.60530    0.69210    1.000
    H109     H        0.43170    0.67020    0.68370    1.000
    C119     C        0.30130    0.34130    0.65020    1.000
    C120     C        0.24500    0.29530    0.67750    1.000
    H110     H        0.25490    0.25020    0.70520    1.000
    C121     C        0.17510    0.31510    0.66440    1.000
    C122     C        0.16070    0.38750    0.62280    1.000
    H111     H        0.11380    0.40410    0.61400    1.000
    C123     C        0.21640    0.43440    0.59490    1.000
    C124     C        0.28630    0.41190    0.60890    1.000
    H112     H        0.32360    0.44400    0.59070    1.000
    C125     C        0.11250    0.26110    0.69090    1.000
    C126     C        0.09820    0.10470    0.69340    1.000
    C127     C        0.03310    0.05300    0.71240    1.000
    H113     H        0.02290    0.94900    0.71390    1.000
    C128     C        0.98560    0.15860    0.72860    1.000
    C129     C        0.00050    0.31410    0.72830    1.000
    H114     H        0.96830    0.38340    0.74040    1.000
    C130     C        0.06440    0.36590    0.70960    1.000
    C131     C        0.07810    0.53780    0.70920    1.000
    H115     H        0.05880    0.58140    0.68220    1.000
    H116     H        0.05570    0.58380    0.73480    1.000
    H117     H        0.12850    0.55640    0.71050    1.000
    C132     C        0.14870    0.98660    0.67500    1.000
    H118     H        0.15980    0.01070    0.64430    1.000
    H119     H        0.19170    0.98630    0.69260    1.000
    H120     H        0.12680    0.88740    0.67640    1.000
    C133     C        0.89510    0.96810    0.73570    1.000
    H121     H        0.90200    0.94700    0.70400    1.000
    H122     H        0.92200    0.89360    0.75290    1.000
    C134     C        0.81630    0.95650    0.74730    1.000
    C135     C        0.20280    0.50790    0.54990    1.000
    C136     C        0.20930    0.66810    0.54480    1.000
    C137     C        0.19900    0.73380    0.50300    1.000
    H123     H        0.20360    0.83900    0.49950    1.000
    C138     C        0.18160    0.64270    0.46590    1.000
    C139     C        0.17390    0.48550    0.47090    1.000
    H124     H        0.16180    0.42520    0.44630    1.000
    C140     C        0.18440    0.41800    0.51330    1.000
    C141     C        0.17850    0.24550    0.51670    1.000
    H125     H        0.16630    0.20390    0.48780    1.000
    H126     H        0.22330    0.20390    0.52650    1.000
    H127     H        0.14220    0.21940    0.53800    1.000
    C142     C        0.23050    0.76560    0.58470    1.000
    H128     H        0.22860    0.87170    0.57640    1.000
    H129     H        0.19820    0.74720    0.60910    1.000
    H130     H        0.27800    0.73970    0.59400    1.000
    C143     C        0.16340    0.62710    0.38690    1.000
    H131     H        0.19840    0.54550    0.38630    1.000
    H132     H        0.11640    0.58120    0.38740    1.000
    C144     C        0.17110    0.72580    0.34520    1.000
