# CIF file generated by openbabel 3.1.0, see https://openbabel.org
data_I
_chemical_name_common 'image0'
_cell_length_a 28.017
_cell_length_b 9.6175
_cell_length_c 8.2586
_cell_angle_alpha 90
_cell_angle_beta 90
_cell_angle_gamma 90
_space_group_name_H-M_alt 'P 1'
_space_group_name_Hall 'P 1'
loop_
    _symmetry_equiv_pos_as_xyz
    x,y,z
loop_
    _atom_site_label
    _atom_site_type_symbol
    _atom_site_fract_x
    _atom_site_fract_y
    _atom_site_fract_z
    _atom_site_occupancy
    Gd1      Gd       0.99625    0.41512    0.90705    1.000
    O1       O        0.07167    0.47830    0.99970    1.000
    O2       O        0.06324    0.61180    0.21610    1.000
    O3       O        0.45157    0.88550    0.96550    1.000
    O4       O        0.45926    0.79630    0.21220    1.000
    O5       O        0.22844    0.77740    0.35070    1.000
    O6       O        0.30071    0.56200    0.31620    1.000
    O7       O        0.97769    0.41200    0.21160    1.000
    O8       O        0.92674    0.30570    0.05100    1.000
    C1       C        0.08779    0.55770    0.10760    1.000
    C2       C        0.13987    0.59370    0.10370    1.000
    C3       C        0.16793    0.55630    0.97140    1.000
    H1       H        0.15500    0.50680    0.88510    1.000
    C4       C        0.21589    0.59510    0.97160    1.000
    H2       H        0.23490    0.57100    0.88360    1.000
    C5       C        0.23621    0.66860    0.09930    1.000
    C6       C        0.20708    0.70270    0.23120    1.000
    C7       C        0.15902    0.66630    0.23260    1.000
    H3       H        0.13990    0.69070    0.32000    1.000
    C8       C        0.28766    0.70740    0.09440    1.000
    C9       C        0.30458    0.79390    0.97800    1.000
    H4       H        0.28370    0.82880    0.90040    1.000
    C10      C        0.35279    0.83140    0.97250    1.000
    H5       H        0.36390    0.88960    0.89070    1.000
    C11      C        0.38376    0.78210    0.08840    1.000
    C12      C        0.36694    0.69250    0.20640    1.000
    H6       H        0.38780    0.65760    0.28400    1.000
    C13      C        0.31923    0.65450    0.21000    1.000
    C14      C        0.43528    0.82510    0.08660    1.000
    C15      C        0.20580    0.78360    0.50340    1.000
    H7       H        0.22450    0.83990    0.57560    1.000
    H8       H        0.20300    0.69150    0.54700    1.000
    H9       H        0.17460    0.82370    0.49150    1.000
    C16      C        0.32820    0.51260    0.44680    1.000
    H10      H        0.30970    0.44770    0.50890    1.000
    H11      H        0.33740    0.58920    0.51440    1.000
    H12      H        0.35620    0.46710    0.40610    1.000
    C17      C        0.93981    0.34350    0.18690    1.000
    H13      H        0.92090    0.32050    0.27550    1.000
    Gd2      Gd       0.00375    0.58488    0.40705    1.000
    O9       O        0.92833    0.52170    0.49970    1.000
    O10      O        0.93676    0.38820    0.71610    1.000
    O11      O        0.54843    0.11450    0.46550    1.000
    O12      O        0.54074    0.20370    0.71220    1.000
    O13      O        0.77156    0.22260    0.85070    1.000
    O14      O        0.69929    0.43800    0.81620    1.000
    O15      O        0.02231    0.58800    0.71160    1.000
    O16      O        0.07326    0.69430    0.55100    1.000
    C18      C        0.91221    0.44230    0.60760    1.000
    C19      C        0.86013    0.40630    0.60370    1.000
    C20      C        0.83207    0.44370    0.47140    1.000
    H14      H        0.84500    0.49320    0.38510    1.000
    C21      C        0.78411    0.40490    0.47160    1.000
    H15      H        0.76510    0.42900    0.38360    1.000
    C22      C        0.76379    0.33140    0.59930    1.000
    C23      C        0.79292    0.29730    0.73120    1.000
    C24      C        0.84098    0.33370    0.73260    1.000
    H16      H        0.86010    0.30930    0.82000    1.000
    C25      C        0.71234    0.29260    0.59440    1.000
    C26      C        0.69542    0.20610    0.47800    1.000
    H17      H        0.71630    0.17120    0.40040    1.000
    C27      C        0.64721    0.16860    0.47250    1.000
    H18      H        0.63610    0.11040    0.39070    1.000
    C28      C        0.61624    0.21790    0.58840    1.000
    C29      C        0.63306    0.30750    0.70640    1.000
    H19      H        0.61220    0.34240    0.78400    1.000
    C30      C        0.68077    0.34550    0.71000    1.000
    C31      C        0.56472    0.17490    0.58660    1.000
    C32      C        0.79420    0.21640    0.00340    1.000
    H20      H        0.77550    0.16010    0.07560    1.000
    H21      H        0.79700    0.30850    0.04700    1.000
    H22      H        0.82540    0.17630    0.99150    1.000
    C33      C        0.67180    0.48740    0.94680    1.000
    H23      H        0.69030    0.55230    0.00890    1.000
    H24      H        0.66260    0.41080    0.01440    1.000
    H25      H        0.64380    0.53290    0.90610    1.000
    C34      C        0.06019    0.65650    0.68690    1.000
    H26      H        0.07910    0.67950    0.77550    1.000
    Gd3      Gd       0.49625    0.08488    0.90705    1.000
    O17      O        0.57167    0.02170    0.99970    1.000
    O18      O        0.56324    0.88820    0.21610    1.000
    O19      O        0.95157    0.61450    0.96550    1.000
    O20      O        0.95926    0.70370    0.21220    1.000
    O21      O        0.72844    0.72260    0.35070    1.000
    O22      O        0.80071    0.93800    0.31620    1.000
    O23      O        0.47769    0.08800    0.21160    1.000
    O24      O        0.42674    0.19430    0.05100    1.000
    C35      C        0.58779    0.94230    0.10760    1.000
    C36      C        0.63987    0.90630    0.10370    1.000
    C37      C        0.66793    0.94370    0.97140    1.000
    H27      H        0.65500    0.99320    0.88510    1.000
    C38      C        0.71589    0.90490    0.97160    1.000
    H28      H        0.73490    0.92900    0.88360    1.000
    C39      C        0.73621    0.83140    0.09930    1.000
    C40      C        0.70708    0.79730    0.23120    1.000
    C41      C        0.65902    0.83370    0.23260    1.000
    H29      H        0.63990    0.80930    0.32000    1.000
    C42      C        0.78766    0.79260    0.09440    1.000
    C43      C        0.80458    0.70610    0.97800    1.000
    H30      H        0.78370    0.67120    0.90040    1.000
    C44      C        0.85279    0.66860    0.97250    1.000
    H31      H        0.86390    0.61040    0.89070    1.000
    C45      C        0.88376    0.71790    0.08840    1.000
    C46      C        0.86694    0.80750    0.20640    1.000
    H32      H        0.88780    0.84240    0.28400    1.000
    C47      C        0.81923    0.84550    0.21000    1.000
    C48      C        0.93528    0.67490    0.08660    1.000
    C49      C        0.70580    0.71640    0.50340    1.000
    H33      H        0.72450    0.66010    0.57560    1.000
    H34      H        0.70300    0.80850    0.54700    1.000
    H35      H        0.67460    0.67630    0.49150    1.000
    C50      C        0.82820    0.98740    0.44680    1.000
    H36      H        0.80970    0.05230    0.50890    1.000
    H37      H        0.83740    0.91080    0.51440    1.000
    H38      H        0.85620    0.03290    0.40610    1.000
    C51      C        0.43981    0.15650    0.18690    1.000
    H39      H        0.42090    0.17950    0.27550    1.000
    Gd4      Gd       0.50375    0.91512    0.40705    1.000
    O25      O        0.42833    0.97830    0.49970    1.000
    O26      O        0.43676    0.11180    0.71610    1.000
    O27      O        0.04843    0.38550    0.46550    1.000
    O28      O        0.04074    0.29630    0.71220    1.000
    O29      O        0.27156    0.27740    0.85070    1.000
    O30      O        0.19929    0.06200    0.81620    1.000
    O31      O        0.52231    0.91200    0.71160    1.000
    O32      O        0.57326    0.80570    0.55100    1.000
    C52      C        0.41221    0.05770    0.60760    1.000
    C53      C        0.36013    0.09370    0.60370    1.000
    C54      C        0.33207    0.05630    0.47140    1.000
    H40      H        0.34500    0.00680    0.38510    1.000
    C55      C        0.28411    0.09510    0.47160    1.000
    H41      H        0.26510    0.07100    0.38360    1.000
    C56      C        0.26379    0.16860    0.59930    1.000
    C57      C        0.29292    0.20270    0.73120    1.000
    C58      C        0.34098    0.16630    0.73260    1.000
    H42      H        0.36010    0.19070    0.82000    1.000
    C59      C        0.21234    0.20740    0.59440    1.000
    C60      C        0.19542    0.29390    0.47800    1.000
    H43      H        0.21630    0.32880    0.40040    1.000
    C61      C        0.14721    0.33140    0.47250    1.000
    H44      H        0.13610    0.38960    0.39070    1.000
    C62      C        0.11624    0.28210    0.58840    1.000
    C63      C        0.13306    0.19250    0.70640    1.000
    H45      H        0.11220    0.15760    0.78400    1.000
    C64      C        0.18077    0.15450    0.71000    1.000
    C65      C        0.06472    0.32510    0.58660    1.000
    C66      C        0.29420    0.28360    0.00340    1.000
    H46      H        0.27550    0.33990    0.07560    1.000
    H47      H        0.29700    0.19150    0.04700    1.000
    H48      H        0.32540    0.32370    0.99150    1.000
    C67      C        0.17180    0.01260    0.94680    1.000
    H49      H        0.19030    0.94770    0.00890    1.000
    H50      H        0.16260    0.08920    0.01440    1.000
    H51      H        0.14380    0.96710    0.90610    1.000
    C68      C        0.56019    0.84350    0.68690    1.000
    H52      H        0.57910    0.82050    0.77550    1.000
