# CIF file generated by openbabel 3.1.0, see https://openbabel.org
data_I
_chemical_name_common 'image0'
_cell_length_a 6.6425
_cell_length_b 16.387
_cell_length_c 13.3679
_cell_angle_alpha 90
_cell_angle_beta 90
_cell_angle_gamma 90
_space_group_name_H-M_alt 'P 1'
_space_group_name_Hall 'P 1'
loop_
    _symmetry_equiv_pos_as_xyz
    x,y,z
loop_
    _atom_site_label
    _atom_site_type_symbol
    _atom_site_fract_x
    _atom_site_fract_y
    _atom_site_fract_z
    _atom_site_occupancy
    C1       C        0.18443    0.53400    0.53270    1.000
    O1       O        0.16190    0.66567    0.65930    1.000
    N1       N        0.36900    0.43200    0.43500    1.000
    C2       C        0.68443    0.03400    0.03270    1.000
    O2       O        0.66190    0.16567    0.15930    1.000
    N2       N        0.86900    0.93200    0.93500    1.000
    C3       C        0.81557    0.96600    0.53270    1.000
    O3       O        0.83810    0.83433    0.65930    1.000
    N3       N        0.63100    0.06800    0.43500    1.000
    C4       C        0.31557    0.46600    0.03270    1.000
    O4       O        0.33810    0.33433    0.15930    1.000
    N4       N        0.13100    0.56800    0.93500    1.000
    C5       C        0.81557    0.03400    0.46730    1.000
    O5       O        0.83810    0.16567    0.34070    1.000
    N5       N        0.63100    0.93200    0.56500    1.000
    C6       C        0.31557    0.53400    0.96730    1.000
    O6       O        0.33810    0.66567    0.84070    1.000
    N6       N        0.13100    0.43200    0.06500    1.000
    C7       C        0.18443    0.46600    0.46730    1.000
    O7       O        0.16190    0.33433    0.34070    1.000
    N7       N        0.36900    0.56800    0.56500    1.000
    C8       C        0.68443    0.96600    0.96730    1.000
    O8       O        0.66190    0.83433    0.84070    1.000
    N8       N        0.86900    0.06800    0.06500    1.000
    C9       C        0.81557    0.46600    0.46730    1.000
    O9       O        0.83810    0.33433    0.34070    1.000
    N9       N        0.63100    0.56800    0.56500    1.000
    C10      C        0.31557    0.96600    0.96730    1.000
    O10      O        0.33810    0.83433    0.84070    1.000
    N10      N        0.13100    0.06800    0.06500    1.000
    C11      C        0.18443    0.03400    0.46730    1.000
    O11      O        0.16190    0.16567    0.34070    1.000
    N11      N        0.36900    0.93200    0.56500    1.000
    C12      C        0.68443    0.53400    0.96730    1.000
    O12      O        0.66190    0.66567    0.84070    1.000
    N12      N        0.86900    0.43200    0.06500    1.000
    C13      C        0.18443    0.96600    0.53270    1.000
    O13      O        0.16190    0.83433    0.65930    1.000
    N13      N        0.36900    0.06800    0.43500    1.000
    C14      C        0.68443    0.46600    0.03270    1.000
    O14      O        0.66190    0.33433    0.15930    1.000
    N14      N        0.86900    0.56800    0.93500    1.000
    C15      C        0.81557    0.53400    0.53270    1.000
    O15      O        0.83810    0.66567    0.65930    1.000
    N15      N        0.63100    0.43200    0.43500    1.000
    C16      C        0.31557    0.03400    0.03270    1.000
    O16      O        0.33810    0.16567    0.15930    1.000
    N16      N        0.13100    0.93200    0.93500    1.000
    Al1      Al       0.25000    0.25000    0.25000    1.000
    Al2      Al       0.75000    0.25000    0.25000    1.000
    Al3      Al       0.75000    0.75000    0.75000    1.000
    Al4      Al       0.25000    0.75000    0.75000    1.000
    O17      O        0.00000    0.25000    0.18840    1.000
    O18      O        0.50000    0.75000    0.68840    1.000
    O19      O        0.00000    0.75000    0.81160    1.000
    O20      O        0.50000    0.25000    0.31160    1.000
    C17      C        0.00000    0.56800    0.56530    1.000
    C18      C        0.00000    0.63590    0.63060    1.000
    C19      C        0.50000    0.06800    0.06530    1.000
    C20      C        0.50000    0.13590    0.13060    1.000
    C21      C        0.00000    0.93200    0.56530    1.000
    C22      C        0.00000    0.86410    0.63060    1.000
    C23      C        0.50000    0.43200    0.06530    1.000
    C24      C        0.50000    0.36410    0.13060    1.000
    C25      C        0.00000    0.06800    0.43470    1.000
    C26      C        0.00000    0.13590    0.36940    1.000
    C27      C        0.50000    0.56800    0.93470    1.000
    C28      C        0.50000    0.63590    0.86940    1.000
    C29      C        0.00000    0.43200    0.43470    1.000
    C30      C        0.00000    0.36410    0.36940    1.000
    C31      C        0.50000    0.93200    0.93470    1.000
    C32      C        0.50000    0.86410    0.86940    1.000
