# CIF file generated by openbabel 3.1.0, see https://openbabel.org
data_I
_chemical_name_common 'image0'
_cell_length_a 13.24
_cell_length_b 13.24
_cell_length_c 13.24
_cell_angle_alpha 90
_cell_angle_beta 90
_cell_angle_gamma 90
_space_group_name_H-M_alt 'P 1'
_space_group_name_Hall 'P 1'
loop_
    _symmetry_equiv_pos_as_xyz
    x,y,z
loop_
    _atom_site_label
    _atom_site_type_symbol
    _atom_site_fract_x
    _atom_site_fract_y
    _atom_site_fract_z
    _atom_site_occupancy
    N1       N        0.63699    0.93696    0.95581    1.000
    N2       N        0.71569    0.98082    0.96236    1.000
    N3       N        0.79240    0.02040    0.96630    1.000
    N4       N        0.86301    0.06304    0.45581    1.000
    N5       N        0.78431    0.01918    0.46236    1.000
    N6       N        0.70760    0.97960    0.46630    1.000
    N7       N        0.36301    0.43696    0.54419    1.000
    N8       N        0.28431    0.48082    0.53764    1.000
    N9       N        0.20760    0.52040    0.53370    1.000
    N10      N        0.13699    0.56304    0.04419    1.000
    N11      N        0.21569    0.51918    0.03764    1.000
    N12      N        0.29240    0.47960    0.03370    1.000
    N13      N        0.95581    0.63699    0.93696    1.000
    N14      N        0.96236    0.71569    0.98082    1.000
    N15      N        0.96630    0.79240    0.02040    1.000
    N16      N        0.45581    0.86301    0.06304    1.000
    N17      N        0.46236    0.78431    0.01918    1.000
    N18      N        0.46630    0.70760    0.97960    1.000
    N19      N        0.54419    0.36301    0.43696    1.000
    N20      N        0.53764    0.28431    0.48082    1.000
    N21      N        0.53370    0.20760    0.52040    1.000
    N22      N        0.04419    0.13699    0.56304    1.000
    N23      N        0.03764    0.21569    0.51918    1.000
    N24      N        0.03370    0.29240    0.47960    1.000
    N25      N        0.93696    0.95581    0.63699    1.000
    N26      N        0.98082    0.96236    0.71569    1.000
    N27      N        0.02040    0.96630    0.79240    1.000
    N28      N        0.06304    0.45581    0.86301    1.000
    N29      N        0.01918    0.46236    0.78431    1.000
    N30      N        0.97960    0.46630    0.70760    1.000
    N31      N        0.43696    0.54419    0.36301    1.000
    N32      N        0.48082    0.53764    0.28431    1.000
    N33      N        0.52040    0.53370    0.20760    1.000
    N34      N        0.56304    0.04419    0.13699    1.000
    N35      N        0.51918    0.03764    0.21569    1.000
    N36      N        0.47960    0.03370    0.29240    1.000
    N37      N        0.36301    0.06304    0.04419    1.000
    N38      N        0.28431    0.01918    0.03764    1.000
    N39      N        0.20760    0.97960    0.03370    1.000
    N40      N        0.13699    0.93696    0.54419    1.000
    N41      N        0.21569    0.98082    0.53764    1.000
    N42      N        0.29240    0.02040    0.53370    1.000
    N43      N        0.63699    0.56304    0.45581    1.000
    N44      N        0.71569    0.51918    0.46236    1.000
    N45      N        0.79240    0.47960    0.46630    1.000
    N46      N        0.86301    0.43696    0.95581    1.000
    N47      N        0.78431    0.48082    0.96236    1.000
    N48      N        0.70760    0.52040    0.96630    1.000
    N49      N        0.04419    0.36301    0.06304    1.000
    N50      N        0.03764    0.28431    0.01918    1.000
    N51      N        0.03370    0.20760    0.97960    1.000
    N52      N        0.54419    0.13699    0.93696    1.000
    N53      N        0.53764    0.21569    0.98082    1.000
    N54      N        0.53370    0.29240    0.02040    1.000
    N55      N        0.45581    0.63699    0.56304    1.000
    N56      N        0.46236    0.71569    0.51918    1.000
    N57      N        0.46630    0.79240    0.47960    1.000
    N58      N        0.95581    0.86301    0.43696    1.000
    N59      N        0.96236    0.78431    0.48082    1.000
    N60      N        0.96630    0.70760    0.52040    1.000
    N61      N        0.06304    0.04419    0.36301    1.000
    N62      N        0.01918    0.03764    0.28431    1.000
    N63      N        0.97960    0.03370    0.20760    1.000
    N64      N        0.93696    0.54419    0.13699    1.000
    N65      N        0.98082    0.53764    0.21569    1.000
    N66      N        0.02040    0.53370    0.29240    1.000
    N67      N        0.56304    0.45581    0.63699    1.000
    N68      N        0.51918    0.46236    0.71569    1.000
    N69      N        0.47960    0.46630    0.79240    1.000
    N70      N        0.43696    0.95581    0.86301    1.000
    N71      N        0.48082    0.96236    0.78431    1.000
    N72      N        0.52040    0.96630    0.70760    1.000
    Fe1      Fe       0.50000    0.00000    0.00000    1.000
    Fe2      Fe       0.00000    0.00000    0.50000    1.000
    Fe3      Fe       0.50000    0.50000    0.50000    1.000
    Fe4      Fe       0.00000    0.50000    0.00000    1.000
    K1       K        0.00000    0.00000    0.00000    1.000
    K2       K        0.50000    0.00000    0.50000    1.000
    K3       K        0.00000    0.50000    0.50000    1.000
    K4       K        0.50000    0.50000    0.00000    1.000
