# CIF file generated by openbabel 3.1.0, see https://openbabel.org
data_I
_chemical_name_common 'image0'
_cell_length_a 27.951
_cell_length_b 9.6124
_cell_length_c 8.1937
_cell_angle_alpha 90
_cell_angle_beta 90
_cell_angle_gamma 90
_space_group_name_H-M_alt 'P 1'
_space_group_name_Hall 'P 1'
loop_
    _symmetry_equiv_pos_as_xyz
    x,y,z
loop_
    _atom_site_label
    _atom_site_type_symbol
    _atom_site_fract_x
    _atom_site_fract_y
    _atom_site_fract_z
    _atom_site_occupancy
    Dy1      Dy       0.00377    0.58480    0.09288    1.000
    O1       O        0.92928    0.52300    0.99940    1.000
    O2       O        0.93764    0.38720    0.78290    1.000
    O3       O        0.54863    0.11040    0.03510    1.000
    O4       O        0.54097    0.20140    0.78550    1.000
    O5       O        0.77186    0.22100    0.64890    1.000
    O6       O        0.69966    0.43820    0.68460    1.000
    O7       O        0.02158    0.58780    0.78790    1.000
    O8       O        0.07243    0.69450    0.94800    1.000
    C1       C        0.91317    0.44100    0.89200    1.000
    C2       C        0.86104    0.40510    0.89620    1.000
    C3       C        0.83282    0.44570    0.02990    1.000
    H1       H        0.84560    0.49770    0.11520    1.000
    C4       C        0.78456    0.40440    0.02970    1.000
    H2       H        0.76560    0.42670    0.11920    1.000
    C5       C        0.76428    0.33200    0.90170    1.000
    C6       C        0.79350    0.29580    0.76990    1.000
    C7       C        0.84133    0.33370    0.76830    1.000
    H3       H        0.86030    0.31030    0.67910    1.000
    C8       C        0.71251    0.29380    0.90800    1.000
    C9       C        0.69562    0.20610    0.02430    1.000
    H4       H        0.71670    0.17050    0.10170    1.000
    C10      C        0.64743    0.16800    0.03080    1.000
    H5       H        0.63630    0.11030    0.11370    1.000
    C11      C        0.61657    0.21660    0.91320    1.000
    C12      C        0.63333    0.30620    0.79370    1.000
    H6       H        0.61250    0.34050    0.71500    1.000
    C13      C        0.68070    0.34430    0.79160    1.000
    C14      C        0.56468    0.17230    0.91250    1.000
    C15      C        0.79380    0.21600    0.49330    1.000
    H7       H        0.77500    0.15940    0.42140    1.000
    H8       H        0.82530    0.17680    0.50340    1.000
    H9       H        0.79620    0.30850    0.44970    1.000
    C16      C        0.67260    0.48170    0.55000    1.000
    H10      H        0.69090    0.54690    0.48680    1.000
    H11      H        0.64370    0.52540    0.58740    1.000
    H12      H        0.66470    0.40270    0.48370    1.000
    C17      C        0.05930    0.65580    0.81340    1.000
    H13      H        0.07830    0.67810    0.72410    1.000
    Dy2      Dy       0.99623    0.41520    0.59288    1.000
    O9       O        0.07072    0.47700    0.49940    1.000
    O10      O        0.06236    0.61280    0.28290    1.000
    O11      O        0.45137    0.88960    0.53510    1.000
    O12      O        0.45903    0.79860    0.28550    1.000
    O13      O        0.22814    0.77900    0.14890    1.000
    O14      O        0.30034    0.56180    0.18460    1.000
    O15      O        0.97842    0.41220    0.28790    1.000
    O16      O        0.92757    0.30550    0.44800    1.000
    C18      C        0.08683    0.55900    0.39200    1.000
    C19      C        0.13896    0.59490    0.39620    1.000
    C20      C        0.16718    0.55430    0.52990    1.000
    H14      H        0.15440    0.50230    0.61520    1.000
    C21      C        0.21544    0.59560    0.52970    1.000
    H15      H        0.23440    0.57330    0.61920    1.000
    C22      C        0.23572    0.66800    0.40170    1.000
    C23      C        0.20650    0.70420    0.26990    1.000
    C24      C        0.15867    0.66630    0.26830    1.000
    H16      H        0.13970    0.68970    0.17910    1.000
    C25      C        0.28749    0.70620    0.40800    1.000
    C26      C        0.30438    0.79390    0.52430    1.000
    H17      H        0.28330    0.82950    0.60170    1.000
    C27      C        0.35257    0.83200    0.53080    1.000
    H18      H        0.36370    0.88970    0.61370    1.000
    C28      C        0.38343    0.78340    0.41320    1.000
    C29      C        0.36667    0.69380    0.29370    1.000
    H19      H        0.38750    0.65950    0.21500    1.000
    C30      C        0.31930    0.65570    0.29160    1.000
    C31      C        0.43532    0.82770    0.41250    1.000
    C32      C        0.20620    0.78400    0.99330    1.000
    H20      H        0.22500    0.84060    0.92140    1.000
    H21      H        0.17470    0.82320    0.00340    1.000
    H22      H        0.20380    0.69150    0.94970    1.000
    C33      C        0.32740    0.51830    0.05000    1.000
    H23      H        0.30910    0.45310    0.98680    1.000
    H24      H        0.35630    0.47460    0.08740    1.000
    H25      H        0.33530    0.59730    0.98370    1.000
    C34      C        0.94070    0.34420    0.31340    1.000
    H26      H        0.92170    0.32190    0.22410    1.000
    Dy3      Dy       0.50377    0.91520    0.09288    1.000
    O17      O        0.42928    0.97700    0.99940    1.000
    O18      O        0.43764    0.11280    0.78290    1.000
    O19      O        0.04863    0.38960    0.03510    1.000
    O20      O        0.04097    0.29860    0.78550    1.000
    O21      O        0.27186    0.27900    0.64890    1.000
    O22      O        0.19966    0.06180    0.68460    1.000
    O23      O        0.52158    0.91220    0.78790    1.000
    O24      O        0.57243    0.80550    0.94800    1.000
    C35      C        0.41317    0.05900    0.89200    1.000
    C36      C        0.36104    0.09490    0.89620    1.000
    C37      C        0.33282    0.05430    0.02990    1.000
    H27      H        0.34560    0.00230    0.11520    1.000
    C38      C        0.28456    0.09560    0.02970    1.000
    H28      H        0.26560    0.07330    0.11920    1.000
    C39      C        0.26428    0.16800    0.90170    1.000
    C40      C        0.29350    0.20420    0.76990    1.000
    C41      C        0.34133    0.16630    0.76830    1.000
    H29      H        0.36030    0.18970    0.67910    1.000
    C42      C        0.21251    0.20620    0.90800    1.000
    C43      C        0.19562    0.29390    0.02430    1.000
    H30      H        0.21670    0.32950    0.10170    1.000
    C44      C        0.14743    0.33200    0.03080    1.000
    H31      H        0.13630    0.38970    0.11370    1.000
    C45      C        0.11657    0.28340    0.91320    1.000
    C46      C        0.13333    0.19380    0.79370    1.000
    H32      H        0.11250    0.15950    0.71500    1.000
    C47      C        0.18070    0.15570    0.79160    1.000
    C48      C        0.06468    0.32770    0.91250    1.000
    C49      C        0.29380    0.28400    0.49330    1.000
    H33      H        0.27500    0.34060    0.42140    1.000
    H34      H        0.32530    0.32320    0.50340    1.000
    H35      H        0.29620    0.19150    0.44970    1.000
    C50      C        0.17260    0.01830    0.55000    1.000
    H36      H        0.19090    0.95310    0.48680    1.000
    H37      H        0.14370    0.97460    0.58740    1.000
    H38      H        0.16470    0.09730    0.48370    1.000
    C51      C        0.55930    0.84420    0.81340    1.000
    H39      H        0.57830    0.82190    0.72410    1.000
    Dy4      Dy       0.49623    0.08480    0.59288    1.000
    O25      O        0.57072    0.02300    0.49940    1.000
    O26      O        0.56236    0.88720    0.28290    1.000
    O27      O        0.95137    0.61040    0.53510    1.000
    O28      O        0.95903    0.70140    0.28550    1.000
    O29      O        0.72814    0.72100    0.14890    1.000
    O30      O        0.80034    0.93820    0.18460    1.000
    O31      O        0.47842    0.08780    0.28790    1.000
    O32      O        0.42757    0.19450    0.44800    1.000
    C52      C        0.58683    0.94100    0.39200    1.000
    C53      C        0.63896    0.90510    0.39620    1.000
    C54      C        0.66718    0.94570    0.52990    1.000
    H40      H        0.65440    0.99770    0.61520    1.000
    C55      C        0.71544    0.90440    0.52970    1.000
    H41      H        0.73440    0.92670    0.61920    1.000
    C56      C        0.73572    0.83200    0.40170    1.000
    C57      C        0.70650    0.79580    0.26990    1.000
    C58      C        0.65867    0.83370    0.26830    1.000
    H42      H        0.63970    0.81030    0.17910    1.000
    C59      C        0.78749    0.79380    0.40800    1.000
    C60      C        0.80438    0.70610    0.52430    1.000
    H43      H        0.78330    0.67050    0.60170    1.000
    C61      C        0.85257    0.66800    0.53080    1.000
    H44      H        0.86370    0.61030    0.61370    1.000
    C62      C        0.88343    0.71660    0.41320    1.000
    C63      C        0.86667    0.80620    0.29370    1.000
    H45      H        0.88750    0.84050    0.21500    1.000
    C64      C        0.81930    0.84430    0.29160    1.000
    C65      C        0.93532    0.67230    0.41250    1.000
    C66      C        0.70620    0.71600    0.99330    1.000
    H46      H        0.72500    0.65940    0.92140    1.000
    H47      H        0.67470    0.67680    0.00340    1.000
    H48      H        0.70380    0.80850    0.94970    1.000
    C67      C        0.82740    0.98170    0.05000    1.000
    H49      H        0.80910    0.04690    0.98680    1.000
    H50      H        0.85630    0.02540    0.08740    1.000
    H51      H        0.83530    0.90270    0.98370    1.000
    C68      C        0.44070    0.15580    0.31340    1.000
    H52      H        0.42170    0.17810    0.22410    1.000
