# CIF file generated by openbabel 3.1.0, see https://openbabel.org
data_I
_chemical_name_common 'image0'
_cell_length_a 11.6425
_cell_length_b 13.8569
_cell_length_c 15.5738
_cell_angle_alpha 90
_cell_angle_beta 90
_cell_angle_gamma 90
_space_group_name_H-M_alt 'P 1'
_space_group_name_Hall 'P 1'
loop_
    _symmetry_equiv_pos_as_xyz
    x,y,z
loop_
    _atom_site_label
    _atom_site_type_symbol
    _atom_site_fract_x
    _atom_site_fract_y
    _atom_site_fract_z
    _atom_site_occupancy
    O1       O        0.39260    0.07934    0.08222    1.000
    C1       C        0.16545    0.08675    0.29965    1.000
    H1       H        0.14007    0.15484    0.32760    1.000
    C2       C        0.23574    0.08682    0.22595    1.000
    H2       H        0.26245    0.15531    0.19953    1.000
    O2       O        0.60740    0.92066    0.08222    1.000
    C3       C        0.83455    0.91325    0.29965    1.000
    H3       H        0.85993    0.84516    0.32760    1.000
    C4       C        0.76426    0.91318    0.22595    1.000
    H4       H        0.73755    0.84469    0.19953    1.000
    O3       O        0.60740    0.07934    0.91778    1.000
    C5       C        0.83455    0.08675    0.70035    1.000
    H5       H        0.85993    0.15484    0.67240    1.000
    C6       C        0.76426    0.08682    0.77405    1.000
    H6       H        0.73755    0.15531    0.80047    1.000
    O4       O        0.39260    0.92066    0.91778    1.000
    C7       C        0.16545    0.91325    0.70035    1.000
    H7       H        0.14007    0.84516    0.67240    1.000
    C8       C        0.23574    0.91318    0.77405    1.000
    H8       H        0.26245    0.84469    0.80047    1.000
    O5       O        0.60740    0.92066    0.91778    1.000
    C9       C        0.83455    0.91325    0.70035    1.000
    H9       H        0.85993    0.84516    0.67240    1.000
    C10      C        0.76426    0.91318    0.77405    1.000
    H10      H        0.73755    0.84469    0.80047    1.000
    O6       O        0.39260    0.07934    0.91778    1.000
    C11      C        0.16545    0.08675    0.70035    1.000
    H11      H        0.14007    0.15484    0.67240    1.000
    C12      C        0.23574    0.08682    0.77405    1.000
    H12      H        0.26245    0.15531    0.80047    1.000
    O7       O        0.39260    0.92066    0.08222    1.000
    C13      C        0.16545    0.91325    0.29965    1.000
    H13      H        0.14007    0.84516    0.32760    1.000
    C14      C        0.23574    0.91318    0.22595    1.000
    H14      H        0.26245    0.84469    0.19953    1.000
    O8       O        0.60740    0.07934    0.08222    1.000
    C15      C        0.83455    0.08675    0.29965    1.000
    H15      H        0.85993    0.15484    0.32760    1.000
    C16      C        0.76426    0.08682    0.22595    1.000
    H16      H        0.73755    0.15531    0.19953    1.000
    Zn1      Zn       0.50000    0.11118    0.00000    1.000
    N1       N        0.50000    0.24480    0.00000    1.000
    C17      C        0.50000    0.44568    0.00000    1.000
    Zn2      Zn       0.50000    0.88882    0.00000    1.000
    N2       N        0.50000    0.75520    0.00000    1.000
    C18      C        0.50000    0.55432    0.00000    1.000
    C19      C        0.11963    0.00000    0.50000    1.000
    H17      H        0.78739    0.00000    0.50000    1.000
    C20      C        0.88037    0.00000    0.50000    1.000
    H18      H        0.21261    0.00000    0.50000    1.000
    C21      C        0.06111    0.00000    0.42009    1.000
    C22      C        0.12996    0.00000    0.33805    1.000
    C23      C        0.27330    0.00000    0.18797    1.000
    C24      C        0.35595    0.00000    0.11291    1.000
    C25      C        0.93889    0.00000    0.42009    1.000
    C26      C        0.87004    0.00000    0.33805    1.000
    C27      C        0.72670    0.00000    0.18797    1.000
    C28      C        0.64405    0.00000    0.11291    1.000
    C29      C        0.93889    0.00000    0.57991    1.000
    C30      C        0.87004    0.00000    0.66195    1.000
    C31      C        0.72670    0.00000    0.81203    1.000
    C32      C        0.64405    0.00000    0.88709    1.000
    C33      C        0.06111    0.00000    0.57991    1.000
    C34      C        0.12996    0.00000    0.66195    1.000
    C35      C        0.27330    0.00000    0.81203    1.000
    C36      C        0.35595    0.00000    0.88709    1.000
    C37      C        0.39855    0.29229    0.00000    1.000
    H19      H        0.31902    0.25206    0.00000    1.000
    C38      C        0.39638    0.39249    0.00000    1.000
    H20      H        0.31285    0.42543    0.00000    1.000
    C39      C        0.60145    0.70771    0.00000    1.000
    H21      H        0.68098    0.74794    0.00000    1.000
    C40      C        0.60362    0.60751    0.00000    1.000
    H22      H        0.68715    0.57457    0.00000    1.000
    C41      C        0.60145    0.29229    0.00000    1.000
    H23      H        0.68098    0.25206    0.00000    1.000
    C42      C        0.60362    0.39249    0.00000    1.000
    H24      H        0.68715    0.42543    0.00000    1.000
    C43      C        0.39855    0.70771    0.00000    1.000
    H25      H        0.31902    0.74794    0.00000    1.000
    C44      C        0.39638    0.60751    0.00000    1.000
    H26      H        0.31285    0.57457    0.00000    1.000
