# CIF file generated by openbabel 3.1.0, see https://openbabel.org
data_I
_chemical_name_common 'image0'
_cell_length_a 9.239
_cell_length_b 13.5278
_cell_length_c 14.6379
_cell_angle_alpha 90
_cell_angle_beta 90.354
_cell_angle_gamma 90
_space_group_name_H-M_alt 'P 1'
_space_group_name_Hall 'P 1'
loop_
    _symmetry_equiv_pos_as_xyz
    x,y,z
loop_
    _atom_site_label
    _atom_site_type_symbol
    _atom_site_fract_x
    _atom_site_fract_y
    _atom_site_fract_z
    _atom_site_occupancy
    Eu1      Eu       0.75117    0.50310    0.59265    1.000
    C1       C        0.99170    0.39460    0.83610    1.000
    C2       C        0.96400    0.30060    0.87150    1.000
    H1       H        0.89230    0.25940    0.84440    1.000
    C3       C        0.04360    0.26780    0.94780    1.000
    C4       C        0.14400    0.33210    0.98900    1.000
    H2       H        0.19920    0.30960    0.03990    1.000
    C5       C        0.16450    0.42770    0.95730    1.000
    C6       C        0.09110    0.45680    0.87890    1.000
    H3       H        0.10910    0.52040    0.85390    1.000
    C7       C        0.26180    0.49680    0.00870    1.000
    C8       C        0.34550    0.57140    0.95430    1.000
    C9       C        0.36580    0.66650    0.98750    1.000
    H4       H        0.31690    0.68610    0.04140    1.000
    C10      C        0.45570    0.73380    0.94410    1.000
    C11      C        0.52710    0.70470    0.86460    1.000
    H5       H        0.59220    0.74890    0.83560    1.000
    C12      C        0.50330    0.61090    0.82780    1.000
    C13      C        0.41090    0.54560    0.87260    1.000
    H6       H        0.39240    0.48240    0.84670    1.000
    C14      C        0.91280    0.43250    0.75260    1.000
    C15      C        0.02350    0.16530    0.98620    1.000
    C16      C        0.47520    0.83460    0.98420    1.000
    C17      C        0.58290    0.57480    0.74450    1.000
    O1       O        0.97060    0.50240    0.70730    1.000
    O2       O        0.79310    0.39560    0.73060    1.000
    O3       O        0.91650    0.11710    0.96210    1.000
    O4       O        0.11910    0.13480    0.04020    1.000
    O5       O        0.40060    0.85710    0.05390    1.000
    O6       O        0.56400    0.89230    0.94880    1.000
    O7       O        0.70510    0.61270    0.72630    1.000
    O8       O        0.52560    0.50800    0.69590    1.000
    H7       H        0.21000    0.53300    0.05500    1.000
    H8       H        0.32600    0.45600    0.04500    1.000
    Eu2      Eu       0.74883    0.00310    0.90735    1.000
    C18      C        0.50830    0.89460    0.66390    1.000
    C19      C        0.53600    0.80060    0.62850    1.000
    H9       H        0.60770    0.75940    0.65560    1.000
    C20      C        0.45640    0.76780    0.55220    1.000
    C21      C        0.35600    0.83210    0.51100    1.000
    H10      H        0.30080    0.80960    0.46010    1.000
    C22      C        0.33550    0.92770    0.54270    1.000
    C23      C        0.40890    0.95680    0.62110    1.000
    H11      H        0.39090    0.02040    0.64610    1.000
    C24      C        0.23820    0.99680    0.49130    1.000
    C25      C        0.15450    0.07140    0.54570    1.000
    C26      C        0.13420    0.16650    0.51250    1.000
    H12      H        0.18310    0.18610    0.45860    1.000
    C27      C        0.04430    0.23380    0.55590    1.000
    C28      C        0.97290    0.20470    0.63540    1.000
    H13      H        0.90780    0.24890    0.66440    1.000
    C29      C        0.99670    0.11090    0.67220    1.000
    C30      C        0.08910    0.04560    0.62740    1.000
    H14      H        0.10760    0.98240    0.65330    1.000
    C31      C        0.58720    0.93250    0.74740    1.000
    C32      C        0.47650    0.66530    0.51380    1.000
    C33      C        0.02480    0.33460    0.51580    1.000
    C34      C        0.91710    0.07480    0.75550    1.000
    O9       O        0.52940    0.00240    0.79270    1.000
    O10      O        0.70690    0.89560    0.76940    1.000
    O11      O        0.58350    0.61710    0.53790    1.000
    O12      O        0.38090    0.63480    0.45980    1.000
    O13      O        0.09940    0.35710    0.44610    1.000
    O14      O        0.93600    0.39230    0.55120    1.000
    O15      O        0.79490    0.11270    0.77370    1.000
    O16      O        0.97440    0.00800    0.80410    1.000
    H15      H        0.29000    0.03300    0.44500    1.000
    H16      H        0.17400    0.95600    0.45500    1.000
    Eu3      Eu       0.24883    0.49690    0.40735    1.000
    C35      C        0.00830    0.60540    0.16390    1.000
    C36      C        0.03600    0.69940    0.12850    1.000
    H17      H        0.10770    0.74060    0.15560    1.000
    C37      C        0.95640    0.73220    0.05220    1.000
    C38      C        0.85600    0.66790    0.01100    1.000
    H18      H        0.80080    0.69040    0.96010    1.000
    C39      C        0.83550    0.57230    0.04270    1.000
    C40      C        0.90890    0.54320    0.12110    1.000
    H19      H        0.89090    0.47960    0.14610    1.000
    C41      C        0.73820    0.50320    0.99130    1.000
    C42      C        0.65450    0.42860    0.04570    1.000
    C43      C        0.63420    0.33350    0.01250    1.000
    H20      H        0.68310    0.31390    0.95860    1.000
    C44      C        0.54430    0.26620    0.05590    1.000
    C45      C        0.47290    0.29530    0.13540    1.000
    H21      H        0.40780    0.25110    0.16440    1.000
    C46      C        0.49670    0.38910    0.17220    1.000
    C47      C        0.58910    0.45440    0.12740    1.000
    H22      H        0.60760    0.51760    0.15330    1.000
    C48      C        0.08720    0.56750    0.24740    1.000
    C49      C        0.97650    0.83470    0.01380    1.000
    C50      C        0.52480    0.16540    0.01580    1.000
    C51      C        0.41710    0.42520    0.25550    1.000
    O17      O        0.02940    0.49760    0.29270    1.000
    O18      O        0.20690    0.60440    0.26940    1.000
    O19      O        0.08350    0.88290    0.03790    1.000
    O20      O        0.88090    0.86520    0.95980    1.000
    O21      O        0.59940    0.14290    0.94610    1.000
    O22      O        0.43600    0.10770    0.05120    1.000
    O23      O        0.29490    0.38730    0.27370    1.000
    O24      O        0.47440    0.49200    0.30410    1.000
    H23      H        0.79000    0.46700    0.94500    1.000
    H24      H        0.67400    0.54400    0.95500    1.000
    Eu4      Eu       0.25117    0.99690    0.09265    1.000
    C52      C        0.49170    0.10540    0.33610    1.000
    C53      C        0.46400    0.19940    0.37150    1.000
    H25      H        0.39230    0.24060    0.34440    1.000
    C54      C        0.54360    0.23220    0.44780    1.000
    C55      C        0.64400    0.16790    0.48900    1.000
    H26      H        0.69920    0.19040    0.53990    1.000
    C56      C        0.66450    0.07230    0.45730    1.000
    C57      C        0.59110    0.04320    0.37890    1.000
    H27      H        0.60910    0.97960    0.35390    1.000
    C58      C        0.76180    0.00320    0.50870    1.000
    C59      C        0.84550    0.92860    0.45430    1.000
    C60      C        0.86580    0.83350    0.48750    1.000
    H28      H        0.81690    0.81390    0.54140    1.000
    C61      C        0.95570    0.76620    0.44410    1.000
    C62      C        0.02710    0.79530    0.36460    1.000
    H29      H        0.09220    0.75110    0.33560    1.000
    C63      C        0.00330    0.88910    0.32780    1.000
    C64      C        0.91090    0.95440    0.37260    1.000
    H30      H        0.89240    0.01760    0.34670    1.000
    C65      C        0.41280    0.06750    0.25260    1.000
    C66      C        0.52350    0.33470    0.48620    1.000
    C67      C        0.97520    0.66540    0.48420    1.000
    C68      C        0.08290    0.92520    0.24450    1.000
    O25      O        0.47060    0.99760    0.20730    1.000
    O26      O        0.29310    0.10440    0.23060    1.000
    O27      O        0.41650    0.38290    0.46210    1.000
    O28      O        0.61910    0.36520    0.54020    1.000
    O29      O        0.90060    0.64290    0.55390    1.000
    O30      O        0.06400    0.60770    0.44880    1.000
    O31      O        0.20510    0.88730    0.22630    1.000
    O32      O        0.02560    0.99200    0.19590    1.000
    H31      H        0.71000    0.96700    0.55500    1.000
    H32      H        0.82600    0.04400    0.54500    1.000
