# CIF file generated by openbabel 3.1.0, see https://openbabel.org
data_I
_chemical_name_common 'image0'
_cell_length_a 14.9347
_cell_length_b 16.0248
_cell_length_c 27.3
_cell_angle_alpha 90
_cell_angle_beta 105.065
_cell_angle_gamma 90
_space_group_name_H-M_alt 'P 1'
_space_group_name_Hall 'P 1'
loop_
    _symmetry_equiv_pos_as_xyz
    x,y,z
loop_
    _atom_site_label
    _atom_site_type_symbol
    _atom_site_fract_x
    _atom_site_fract_y
    _atom_site_fract_z
    _atom_site_occupancy
    W1       W        0.56363    0.22044    0.45270    1.000
    W2       W        0.75348    0.27917    0.39377    1.000
    W3       W        0.58700    0.23003    0.57755    1.000
    W4       W        0.93533    0.36768    0.47687    1.000
    W5       W        0.90141    0.15772    0.47773    1.000
    W6       W        0.95940    0.37825    0.61179    1.000
    W7       W        0.80369    0.30095    0.66957    1.000
    W8       W        0.70958    0.08987    0.53031    1.000
    W9       W        0.92488    0.16768    0.61635    1.000
    W10      W        0.59490    0.43735    0.42010    1.000
    W11      W        0.37131    0.54845    0.39537    1.000
    Eu1      Eu       0.80183    0.56471    0.52599    1.000
    Eu2      Eu       0.65031    0.71390    0.25827    1.000
    As1      As       0.75867    0.32037    0.52897    1.000
    P1       P        0.52220    0.56480    0.32354    1.000
    P2       P        0.41580    0.40790    0.31754    1.000
    O1       O        0.68850    0.38090    0.39750    1.000
    O2       O        0.91040    0.36310    0.67250    1.000
    O3       O        0.82130    0.28340    0.48510    1.000
    O4       O        0.50090    0.37440    0.35780    1.000
    O5       O        0.93920    0.15790    0.54950    1.000
    O6       O        0.35130    0.45690    0.34270    1.000
    O7       O        0.48520    0.49410    0.42510    1.000
    O8       O        0.61710    0.11870    0.57020    1.000
    O9       O        0.40170    0.64910    0.42880    1.000
    O10      O        0.86440    0.34180    0.40660    1.000
    O11      O        0.83820    0.29230    0.58750    1.000
    O12      O        0.86890    0.45380    0.48400    1.000
    O13      O        0.44870    0.60400    0.34600    1.000
    O14      O        0.86970    0.20000    0.66960    1.000
    O15      O        0.97890    0.24270    0.47260    1.000
    O16      O        0.78860    0.10460    0.48900    1.000
    O17      O        0.51100    0.23330    0.51040    1.000
    O18      O        0.68650    0.23050    0.52570    1.000
    O19      O        0.98200    0.35120    0.54760    1.000
    O20      O        0.57560    0.34290    0.45490    1.000
    O21      O        0.65410    0.22770    0.41530    1.000
    O22      O        0.59830    0.52000    0.36460    1.000
    O23      O        0.82240    0.17880    0.41160    1.000
    O24      O        0.00530    0.25410    0.63040    1.000
    O25      O        0.80520    0.11220    0.58740    1.000
    O26      O        0.36280    0.34140    0.28370    1.000
    O27      O        0.26680    0.59960    0.35170    1.000
    O28      O        0.67210    0.49200    0.46680    1.000
    O29      O        0.88580    0.45950    0.58740    1.000
    O30      O        0.69500    0.24600    0.63210    1.000
    O31      O        0.03420    0.40800    0.46230    1.000
    O32      O        0.30870    0.50120    0.43230    1.000
    O33      O        0.56460    0.62550    0.29500    1.000
    O34      O        0.59830    0.11150    0.47180    1.000
    O35      O        0.52570    0.44230    0.25760    1.000
    H1       H        0.50050    0.40400    0.23910    1.000
    C1       C        0.45940    0.48190    0.27970    1.000
    C2       C        0.38400    0.52100    0.24280    1.000
    H2       H        0.34220    0.54630    0.25990    1.000
    H3       H        0.40820    0.56300    0.22470    1.000
    H4       H        0.35140    0.47970    0.21940    1.000
    O36      O        0.61700    0.78800    0.32300    1.000
    O37      O        0.56000    0.81200    0.30500    1.000
    W12      W        0.43637    0.72044    0.04730    1.000
    W13      W        0.24652    0.77917    0.10623    1.000
    W14      W        0.41300    0.73003    0.92245    1.000
    W15      W        0.06467    0.86768    0.02313    1.000
    W16      W        0.09859    0.65772    0.02227    1.000
    W17      W        0.04060    0.87825    0.88821    1.000
    W18      W        0.19631    0.80095    0.83043    1.000
    W19      W        0.29042    0.58987    0.96969    1.000
    W20      W        0.07512    0.66768    0.88365    1.000
    W21      W        0.40510    0.93735    0.07990    1.000
    W22      W        0.62869    0.04845    0.10463    1.000
    Eu3      Eu       0.19817    0.06471    0.97401    1.000
    Eu4      Eu       0.34969    0.21390    0.24173    1.000
    As2      As       0.24133    0.82037    0.97103    1.000
    P3       P        0.47780    0.06480    0.17646    1.000
    P4       P        0.58420    0.90790    0.18246    1.000
    O38      O        0.31150    0.88090    0.10250    1.000
    O39      O        0.08960    0.86310    0.82750    1.000
    O40      O        0.17870    0.78340    0.01490    1.000
    O41      O        0.49910    0.87440    0.14220    1.000
    O42      O        0.06080    0.65790    0.95050    1.000
    O43      O        0.64870    0.95690    0.15730    1.000
    O44      O        0.51480    0.99410    0.07490    1.000
    O45      O        0.38290    0.61870    0.92980    1.000
    O46      O        0.59830    0.14910    0.07120    1.000
    O47      O        0.13560    0.84180    0.09340    1.000
    O48      O        0.16180    0.79230    0.91250    1.000
    O49      O        0.13110    0.95380    0.01600    1.000
    O50      O        0.55130    0.10400    0.15400    1.000
    O51      O        0.13030    0.70000    0.83040    1.000
    O52      O        0.02110    0.74270    0.02740    1.000
    O53      O        0.21140    0.60460    0.01100    1.000
    O54      O        0.48900    0.73330    0.98960    1.000
    O55      O        0.31350    0.73050    0.97430    1.000
    O56      O        0.01800    0.85120    0.95240    1.000
    O57      O        0.42440    0.84290    0.04510    1.000
    O58      O        0.34590    0.72770    0.08470    1.000
    O59      O        0.40170    0.02000    0.13540    1.000
    O60      O        0.17760    0.67880    0.08840    1.000
    O61      O        0.99470    0.75410    0.86960    1.000
    O62      O        0.19480    0.61220    0.91260    1.000
    O63      O        0.63720    0.84140    0.21630    1.000
    O64      O        0.73320    0.09960    0.14830    1.000
    O65      O        0.32790    0.99200    0.03320    1.000
    O66      O        0.11420    0.95950    0.91260    1.000
    O67      O        0.30500    0.74600    0.86790    1.000
    O68      O        0.96580    0.90800    0.03770    1.000
    O69      O        0.69130    0.00120    0.06770    1.000
    O70      O        0.43540    0.12550    0.20500    1.000
    O71      O        0.40170    0.61150    0.02820    1.000
    O72      O        0.47430    0.94230    0.24240    1.000
    H5       H        0.49950    0.90400    0.26090    1.000
    C3       C        0.54060    0.98190    0.22030    1.000
    C4       C        0.61600    0.02100    0.25720    1.000
    H6       H        0.65780    0.04630    0.24010    1.000
    H7       H        0.59180    0.06300    0.27530    1.000
    H8       H        0.64860    0.97970    0.28060    1.000
    O73      O        0.38300    0.28800    0.17700    1.000
    O74      O        0.44000    0.31200    0.19500    1.000
    W23      W        0.43637    0.77956    0.54730    1.000
    W24      W        0.24652    0.72083    0.60623    1.000
    W25      W        0.41300    0.76997    0.42245    1.000
    W26      W        0.06467    0.63232    0.52313    1.000
    W27      W        0.09859    0.84228    0.52227    1.000
    W28      W        0.04060    0.62175    0.38821    1.000
    W29      W        0.19631    0.69905    0.33043    1.000
    W30      W        0.29042    0.91013    0.46969    1.000
    W31      W        0.07512    0.83232    0.38365    1.000
    W32      W        0.40510    0.56265    0.57990    1.000
    W33      W        0.62869    0.45155    0.60463    1.000
    Eu5      Eu       0.19817    0.43529    0.47401    1.000
    Eu6      Eu       0.34969    0.28610    0.74173    1.000
    As3      As       0.24133    0.67963    0.47103    1.000
    P5       P        0.47780    0.43520    0.67646    1.000
    P6       P        0.58420    0.59210    0.68246    1.000
    O75      O        0.31150    0.61910    0.60250    1.000
    O76      O        0.08960    0.63690    0.32750    1.000
    O77      O        0.17870    0.71660    0.51490    1.000
    O78      O        0.49910    0.62560    0.64220    1.000
    O79      O        0.06080    0.84210    0.45050    1.000
    O80      O        0.64870    0.54310    0.65730    1.000
    O81      O        0.51480    0.50590    0.57490    1.000
    O82      O        0.38290    0.88130    0.42980    1.000
    O83      O        0.59830    0.35090    0.57120    1.000
    O84      O        0.13560    0.65820    0.59340    1.000
    O85      O        0.16180    0.70770    0.41250    1.000
    O86      O        0.13110    0.54620    0.51600    1.000
    O87      O        0.55130    0.39600    0.65400    1.000
    O88      O        0.13030    0.80000    0.33040    1.000
    O89      O        0.02110    0.75730    0.52740    1.000
    O90      O        0.21140    0.89540    0.51100    1.000
    O91      O        0.48900    0.76670    0.48960    1.000
    O92      O        0.31350    0.76950    0.47430    1.000
    O93      O        0.01800    0.64880    0.45240    1.000
    O94      O        0.42440    0.65710    0.54510    1.000
    O95      O        0.34590    0.77230    0.58470    1.000
    O96      O        0.40170    0.48000    0.63540    1.000
    O97      O        0.17760    0.82120    0.58840    1.000
    O98      O        0.99470    0.74590    0.36960    1.000
    O99      O        0.19480    0.88780    0.41260    1.000
    O100     O        0.63720    0.65860    0.71630    1.000
    O101     O        0.73320    0.40040    0.64830    1.000
    O102     O        0.32790    0.50800    0.53320    1.000
    O103     O        0.11420    0.54050    0.41260    1.000
    O104     O        0.30500    0.75400    0.36790    1.000
    O105     O        0.96580    0.59200    0.53770    1.000
    O106     O        0.69130    0.49880    0.56770    1.000
    O107     O        0.43540    0.37450    0.70500    1.000
    O108     O        0.40170    0.88850    0.52820    1.000
    O109     O        0.47430    0.55770    0.74240    1.000
    H9       H        0.49950    0.59600    0.76090    1.000
    C5       C        0.54060    0.51810    0.72030    1.000
    C6       C        0.61600    0.47900    0.75720    1.000
    H10      H        0.65780    0.45370    0.74010    1.000
    H11      H        0.59180    0.43700    0.77530    1.000
    H12      H        0.64860    0.52030    0.78060    1.000
    O110     O        0.38300    0.21200    0.67700    1.000
    O111     O        0.44000    0.18800    0.69500    1.000
    W34      W        0.56363    0.27956    0.95270    1.000
    W35      W        0.75348    0.22083    0.89377    1.000
    W36      W        0.58700    0.26997    0.07755    1.000
    W37      W        0.93533    0.13232    0.97687    1.000
    W38      W        0.90141    0.34228    0.97773    1.000
    W39      W        0.95940    0.12175    0.11179    1.000
    W40      W        0.80369    0.19905    0.16957    1.000
    W41      W        0.70958    0.41013    0.03031    1.000
    W42      W        0.92488    0.33232    0.11635    1.000
    W43      W        0.59490    0.06265    0.92010    1.000
    W44      W        0.37131    0.95155    0.89537    1.000
    Eu7      Eu       0.80183    0.93529    0.02599    1.000
    Eu8      Eu       0.65031    0.78610    0.75827    1.000
    As4      As       0.75867    0.17963    0.02897    1.000
    P7       P        0.52220    0.93520    0.82354    1.000
    P8       P        0.41580    0.09210    0.81754    1.000
    O112     O        0.68850    0.11910    0.89750    1.000
    O113     O        0.91040    0.13690    0.17250    1.000
    O114     O        0.82130    0.21660    0.98510    1.000
    O115     O        0.50090    0.12560    0.85780    1.000
    O116     O        0.93920    0.34210    0.04950    1.000
    O117     O        0.35130    0.04310    0.84270    1.000
    O118     O        0.48520    0.00590    0.92510    1.000
    O119     O        0.61710    0.38130    0.07020    1.000
    O120     O        0.40170    0.85090    0.92880    1.000
    O121     O        0.86440    0.15820    0.90660    1.000
    O122     O        0.83820    0.20770    0.08750    1.000
    O123     O        0.86890    0.04620    0.98400    1.000
    O124     O        0.44870    0.89600    0.84600    1.000
    O125     O        0.86970    0.30000    0.16960    1.000
    O126     O        0.97890    0.25730    0.97260    1.000
    O127     O        0.78860    0.39540    0.98900    1.000
    O128     O        0.51100    0.26670    0.01040    1.000
    O129     O        0.68650    0.26950    0.02570    1.000
    O130     O        0.98200    0.14880    0.04760    1.000
    O131     O        0.57560    0.15710    0.95490    1.000
    O132     O        0.65410    0.27230    0.91530    1.000
    O133     O        0.59830    0.98000    0.86460    1.000
    O134     O        0.82240    0.32120    0.91160    1.000
    O135     O        0.00530    0.24590    0.13040    1.000
    O136     O        0.80520    0.38780    0.08740    1.000
    O137     O        0.36280    0.15860    0.78370    1.000
    O138     O        0.26680    0.90040    0.85170    1.000
    O139     O        0.67210    0.00800    0.96680    1.000
    O140     O        0.88580    0.04050    0.08740    1.000
    O141     O        0.69500    0.25400    0.13210    1.000
    O142     O        0.03420    0.09200    0.96230    1.000
    O143     O        0.30870    0.99880    0.93230    1.000
    O144     O        0.56460    0.87450    0.79500    1.000
    O145     O        0.59830    0.38850    0.97180    1.000
    O146     O        0.52570    0.05770    0.75760    1.000
    H13      H        0.50050    0.09600    0.73910    1.000
    C7       C        0.45940    0.01810    0.77970    1.000
    C8       C        0.38400    0.97900    0.74280    1.000
    H14      H        0.34220    0.95370    0.75990    1.000
    H15      H        0.40820    0.93700    0.72470    1.000
    H16      H        0.35140    0.02030    0.71940    1.000
    O147     O        0.61700    0.71200    0.82300    1.000
    O148     O        0.56000    0.68800    0.80500    1.000
