# CIF file generated by openbabel 3.1.0, see https://openbabel.org
data_I
_chemical_name_common 'DARSEV_clean'
_cell_length_a 10.2343
_cell_length_b 19.118
_cell_length_c 20.9287
_cell_angle_alpha 67.553
_cell_angle_beta 86.753
_cell_angle_gamma 83.63
_space_group_name_H-M_alt 'P 1'
_space_group_name_Hall 'P 1'
loop_
    _symmetry_equiv_pos_as_xyz
    x,y,z
loop_
    _atom_site_label
    _atom_site_type_symbol
    _atom_site_fract_x
    _atom_site_fract_y
    _atom_site_fract_z
    _atom_site_occupancy
    Cd1      Cd       0.99075    0.16458    0.09415    1.000
    Cd2      Cd       0.72089    0.09936    0.00832    1.000
    Cd3      Cd       0.35536    0.12775    0.05273    1.000
    H4       H        0.45480    0.23460    0.12340    1.000
    H5       H        0.51560    0.22880    0.23030    1.000
    H6       H        0.52920    0.99980    0.30770    1.000
    H7       H        0.45550    0.01090    0.20050    1.000
    H8       H        0.75870    0.03130    0.31960    1.000
    H9       H        0.96400    0.97380    0.49410    1.000
    H10      H        0.81230    0.03960    0.53870    1.000
    H11      H        0.40810    0.20030    0.34300    1.000
    H12      H        0.65140    0.26180    0.45050    1.000
    H13      H        0.68250    0.37430    0.45600    1.000
    H14      H        0.67720    0.27900    0.66630    1.000
    H15      H        0.58810    0.03040    0.71750    1.000
    H16      H        0.52770    0.06900    0.90880    1.000
    H17      H        0.48700    0.08180    0.79570    1.000
    H18      H        0.82810    0.17680    0.73680    1.000
    H19      H        0.85820    0.16300    0.84970    1.000
    H20      H        0.24060    0.23840    0.90330    1.000
    H21      H        0.18940    0.23840    0.79820    1.000
    H22      H        0.22510    0.00790    0.87950    1.000
    H23      H        0.28270    0.01660    0.98210    1.000
    H24      H        0.02950    0.02530    0.83880    1.000
    H25      H        0.86680    0.96820    0.69940    1.000
    H26      H        0.97960    0.04740    0.61400    1.000
    H27      H        0.31900    0.19990    0.71300    1.000
    H28      H        0.04570    0.27530    0.55990    1.000
    H29      H        0.97290    0.38660    0.48050    1.000
    H30      H        0.98690    0.29640    0.33330    1.000
    H31      H        0.17750    0.05100    0.44090    1.000
    H32      H        0.20100    0.10820    0.21510    1.000
    H33      H        0.24660    0.11010    0.32300    1.000
    H34      H        0.87010    0.20110    0.33110    1.000
    H35      H        0.83640    0.19680    0.22450    1.000
    H36      H        0.71080    0.25370    0.04320    1.000
    H37      H        0.56410    0.35810    0.03390    1.000
    H38      H        0.85610    0.43540    0.11200    1.000
    H39      H        0.98340    0.32610    0.11800    1.000
    H40      H        0.63010    0.47220    0.16050    1.000
    H41      H        0.63900    0.47310    0.94080    1.000
    H42      H        0.37340    0.64710    0.83480    1.000
    H43      H        0.32690    0.67400    0.93430    1.000
    H44      H        0.01450    0.03330    0.00330    1.000
    H45      H        0.15630    0.92900    0.02440    1.000
    H46      H        0.86600    0.81080    0.03200    1.000
    H47      H        0.72140    0.92450    0.01370    1.000
    H48      H        0.27440    0.85360    0.99520    1.000
    H49      H        0.22270    0.53790    0.11140    1.000
    H50      H        0.01080    0.51270    0.15640    1.000
    H51      H        0.90510    0.73880    0.09780    1.000
    C52      C        0.46650    0.18730    0.16130    1.000
    C53      C        0.50350    0.18290    0.22480    1.000
    C54      C        0.52450    0.11390    0.28220    1.000
    C55      C        0.51090    0.04840    0.27210    1.000
    C56      C        0.46890    0.05610    0.20700    1.000
    C57      C        0.55460    0.11430    0.35000    1.000
    C58      C        0.67110    0.07500    0.38920    1.000
    C59      C        0.76720    0.03270    0.36400    1.000
    C60      C        0.87020    0.99480    0.40300    1.000
    C61      C        0.88800    0.99960    0.46840    1.000
    C62      C        0.80070    0.03890    0.49420    1.000
    C63      C        0.68860    0.08040    0.45360    1.000
    C64      C        0.59130    0.11970    0.48290    1.000
    C65      C        0.48530    0.16820    0.43830    1.000
    C66      C        0.47300    0.16610    0.37320    1.000
    C67      C        0.60920    0.12680    0.55100    1.000
    C68      C        0.64090    0.19940    0.55370    1.000
    C69      C        0.65570    0.26500    0.49450    1.000
    C70      C        0.67520    0.33040    0.49700    1.000
    C71      C        0.68520    0.33300    0.56330    1.000
    C72      C        0.67200    0.27320    0.62340    1.000
    C73      C        0.65050    0.20180    0.62210    1.000
    C74      C        0.63150    0.13790    0.68090    1.000
    C75      C        0.60290    0.07280    0.67630    1.000
    C76      C        0.59390    0.06570    0.60810    1.000
    C77      C        0.58860    0.09200    0.87290    1.000
    C78      C        0.56390    0.09960    0.80520    1.000
    C79      C        0.65230    0.13330    0.75180    1.000
    C80      C        0.76320    0.15530    0.77090    1.000
    C81      C        0.78140    0.14660    0.83850    1.000
    C82      C        0.24130    0.19130    0.89770    1.000
    C83      C        0.20840    0.19150    0.83590    1.000
    C84      C        0.20250    0.12430    0.82740    1.000
    C85      C        0.22980    0.05580    0.88280    1.000
    C86      C        0.26450    0.06230    0.94300    1.000
    C87      C        0.18400    0.12420    0.75540    1.000
    C88      C        0.09950    0.08140    0.74060    1.000
    C89      C        0.02070    0.03120    0.79210    1.000
    C90      C        0.93350    0.99120    0.77730    1.000
    C91      C        0.92500    0.99790    0.70980    1.000
    C92      C        0.99250    0.04370    0.65980    1.000
    C93      C        0.08300    0.08730    0.67020    1.000
    C94      C        0.15260    0.13240    0.61950    1.000
    C95      C        0.24560    0.18150    0.63170    1.000
    C96      C        0.25800    0.17230    0.70210    1.000
    C97      C        0.13460    0.14600    0.54530    1.000
    C98      C        0.07500    0.21890    0.49330    1.000
    C99      C        0.03850    0.28070    0.51310    1.000
    C100     C        0.99500    0.34430    0.46740    1.000
    C101     C        0.98000    0.35380    0.39500    1.000
    C102     C        0.00580    0.29220    0.37860    1.000
    C103     C        0.06060    0.22110    0.42640    1.000
    C104     C        0.09190    0.15900    0.40680    1.000
    C105     C        0.15310    0.09340    0.45370    1.000
    C106     C        0.18060    0.08850    0.52190    1.000
    C107     C        0.13480    0.12880    0.23840    1.000
    C108     C        0.16270    0.13010    0.30320    1.000
    C109     C        0.06750    0.16060    0.33810    1.000
    C110     C        0.94070    0.18370    0.30770    1.000
    C111     C        0.92120    0.18070    0.24420    1.000
    C112     C        0.73870    0.29240    0.05570    1.000
    C113     C        0.65080    0.35370    0.04990    1.000
    C114     C        0.69800    0.41390    0.07010    1.000
    C115     C        0.82280    0.40040    0.09630    1.000
    C116     C        0.89800    0.33510    0.09920    1.000
    C117     C        0.61320    0.48610    0.05970    1.000
    C118     C        0.58560    0.50200    0.11870    1.000
    C119     C        0.49290    0.56170    0.11680    1.000
    C120     C        0.42780    0.60540    0.05580    1.000
    C121     C        0.45540    0.58950    0.99670    1.000
    C122     C        0.54810    0.52980    0.99860    1.000
    C123     C        0.57570    0.51390    0.93950    1.000
    C124     C        0.51100    0.55760    0.87850    1.000
    C125     C        0.41790    0.61730    0.87650    1.000
    C126     C        0.39030    0.63320    0.93560    1.000
    C127     C        0.97900    0.98620    0.01480    1.000
    C128     C        0.06500    0.92260    0.02620    1.000
    C129     C        0.03600    0.86010    0.03830    1.000
    C130     C        0.89900    0.85610    0.03040    1.000
    C131     C        0.81200    0.92520    0.01990    1.000
    C132     C        0.31560    0.66830    0.05110    1.000
    C133     C        0.34720    0.74290    0.02030    1.000
    C134     C        0.25290    0.80260    0.01630    1.000
    C135     C        0.12700    0.78760    0.04300    1.000
    C136     C        0.09550    0.71300    0.07380    1.000
    C137     C        0.18980    0.65330    0.07790    1.000
    C138     C        0.15830    0.57870    0.10860    1.000
    C139     C        0.03240    0.56370    0.13540    1.000
    C140     C        0.93810    0.62340    0.13130    1.000
    C141     C        0.96960    0.69800    0.10060    1.000
    N142     N        0.44690    0.12000    0.15490    1.000
    N143     N        0.69500    0.11600    0.88790    1.000
    N144     N        0.27420    0.12760    0.95020    1.000
    N145     N        0.01670    0.15610    0.20880    1.000
    N146     N        0.86030    0.28380    0.07780    1.000
    N147     N        0.85230    0.98690    0.01850    1.000
    Cl148    Cl       0.53660    0.21450    0.98040    1.000
    Cl149    Cl       0.92330    0.18040    0.97020    1.000
    Cl150    Cl       0.83320    0.93240    0.84180    1.000
    Cl151    Cl       0.78440    0.08910    0.13320    1.000
    Cl152    Cl       0.99130    0.94420    0.37230    1.000
    Cl153    Cl       0.16680    0.04490    0.12110    1.000
    Cl154    Cl       0.70160    0.42400    0.56690    1.000
    Cl155    Cl       0.52730    0.01170    0.05690    1.000
    Cl156    Cl       0.91930    0.44330    0.33530    1.000
    Cl157    Cl       0.19240    0.24600    0.04940    1.000
    Cl158    Cl       0.57360    0.55810    0.79820    1.000
    Cl159    Cl       0.78710    0.59680    0.16690    1.000
    O160     O        0.39920    0.21430    0.45570    1.000
    O161     O        0.56900    0.99950    0.60570    1.000
    O162     O        0.32030    0.22740    0.58110    1.000
    O163     O        0.24250    0.02470    0.56780    1.000
    O164     O        0.46210    0.57630    0.17730    1.000
    O165     O        0.46900    0.75860    0.99080    1.000
    H166     H        0.45152    0.25098    0.47384    1.000
    H167     H        0.46132    0.99527    0.61004    1.000
    H168     H        0.32155    0.28220    0.58778    1.000
    H169     H        0.31253    0.04010    0.59776    1.000
    H170     H        0.55311    0.58588    0.19797    1.000
    H171     H        0.50389    0.80460    0.00357    1.000
