# CIF file generated by openbabel 3.1.0, see https://openbabel.org
data_I
_chemical_name_common 'image0'
_cell_length_a 9.0368
_cell_length_b 9.0368
_cell_length_c 12.5364
_cell_angle_alpha 90
_cell_angle_beta 90
_cell_angle_gamma 90
_space_group_name_H-M_alt 'P 1'
_space_group_name_Hall 'P 1'
loop_
    _symmetry_equiv_pos_as_xyz
    x,y,z
loop_
    _atom_site_label
    _atom_site_type_symbol
    _atom_site_fract_x
    _atom_site_fract_y
    _atom_site_fract_z
    _atom_site_occupancy
    O1       O        0.18536    0.90330    0.96126    1.000
    C1       C        0.25580    0.95960    0.88057    1.000
    O2       O        0.20290    0.05940    0.82449    1.000
    O3       O        0.38560    0.90183    0.86202    1.000
    O4       O        0.81464    0.09670    0.96126    1.000
    C2       C        0.74420    0.04040    0.88057    1.000
    O5       O        0.79710    0.94060    0.82449    1.000
    O6       O        0.61440    0.09817    0.86202    1.000
    O7       O        0.90330    0.81464    0.03874    1.000
    C3       C        0.95960    0.74420    0.11943    1.000
    O8       O        0.05940    0.79710    0.17551    1.000
    O9       O        0.90183    0.61440    0.13798    1.000
    O10      O        0.09670    0.18536    0.03874    1.000
    C4       C        0.04040    0.25580    0.11943    1.000
    O11      O        0.94060    0.20290    0.17551    1.000
    O12      O        0.09817    0.38560    0.13798    1.000
    O13      O        0.68536    0.59670    0.46126    1.000
    C5       C        0.75580    0.54040    0.38057    1.000
    O14      O        0.70290    0.44060    0.32449    1.000
    O15      O        0.88560    0.59817    0.36202    1.000
    O16      O        0.31464    0.40330    0.46126    1.000
    C6       C        0.24420    0.45960    0.38057    1.000
    O17      O        0.29710    0.55940    0.32449    1.000
    O18      O        0.11440    0.40183    0.36202    1.000
    O19      O        0.40330    0.68536    0.53874    1.000
    C7       C        0.45960    0.75580    0.61943    1.000
    O20      O        0.55940    0.70290    0.67551    1.000
    O21      O        0.40183    0.88560    0.63798    1.000
    O22      O        0.59670    0.31464    0.53874    1.000
    C8       C        0.54040    0.24420    0.61943    1.000
    O23      O        0.44060    0.29710    0.67551    1.000
    O24      O        0.59817    0.11440    0.63798    1.000
    Cu1      Cu       0.00000    0.00000    0.00000    1.000
    Cu2      Cu       0.50000    0.50000    0.50000    1.000
    Cu3      Cu       0.50000    0.00000    0.75000    1.000
    Cu4      Cu       0.00000    0.50000    0.25000    1.000
