# CIF file generated by openbabel 3.1.0, see https://openbabel.org
data_I
_chemical_name_common 'image0'
_cell_length_a 10.421
_cell_length_b 23.3526
_cell_length_c 6.9214
_cell_angle_alpha 90
_cell_angle_beta 90
_cell_angle_gamma 90
_space_group_name_H-M_alt 'P 1'
_space_group_name_Hall 'P 1'
loop_
    _symmetry_equiv_pos_as_xyz
    x,y,z
loop_
    _atom_site_label
    _atom_site_type_symbol
    _atom_site_fract_x
    _atom_site_fract_y
    _atom_site_fract_z
    _atom_site_occupancy
    Zn1      Zn       0.50000    0.36581    0.25000    1.000
    O1       O        0.50000    0.45110    0.25000    1.000
    Zn2      Zn       0.00000    0.86581    0.25000    1.000
    O2       O        0.00000    0.95110    0.25000    1.000
    Zn3      Zn       0.50000    0.63419    0.75000    1.000
    O3       O        0.50000    0.54890    0.75000    1.000
    Zn4      Zn       0.00000    0.13419    0.75000    1.000
    O4       O        0.00000    0.04890    0.75000    1.000
    Zn5      Zn       0.50000    0.50000    0.00000    1.000
    Zn6      Zn       0.00000    0.00000    0.00000    1.000
    Zn7      Zn       0.50000    0.50000    0.50000    1.000
    Zn8      Zn       0.00000    0.00000    0.50000    1.000
    C1       C        0.00000    0.16290    0.25000    1.000
    C2       C        0.00000    0.34600    0.25000    1.000
    C3       C        0.00000    0.22690    0.25000    1.000
    C4       C        0.50000    0.66290    0.25000    1.000
    C5       C        0.50000    0.84600    0.25000    1.000
    C6       C        0.50000    0.72690    0.25000    1.000
    C7       C        0.00000    0.83710    0.75000    1.000
    C8       C        0.00000    0.65400    0.75000    1.000
    C9       C        0.00000    0.77310    0.75000    1.000
    C10      C        0.50000    0.33710    0.75000    1.000
    C11      C        0.50000    0.15400    0.75000    1.000
    C12      C        0.50000    0.27310    0.75000    1.000
    C13      C        0.24080    0.34860    0.25000    1.000
    C14      C        0.11600    0.31630    0.25000    1.000
    C15      C        0.11520    0.25650    0.25000    1.000
    H1       H        0.19230    0.23640    0.25000    1.000
    O5       O        0.34220    0.31999    0.25000    1.000
    O6       O        0.23580    0.40230    0.25000    1.000
    C16      C        0.74080    0.84860    0.25000    1.000
    C17      C        0.61600    0.81630    0.25000    1.000
    C18      C        0.61520    0.75650    0.25000    1.000
    H2       H        0.69230    0.73640    0.25000    1.000
    O7       O        0.84220    0.81999    0.25000    1.000
    O8       O        0.73580    0.90230    0.25000    1.000
    C19      C        0.75920    0.65140    0.75000    1.000
    C20      C        0.88400    0.68370    0.75000    1.000
    C21      C        0.88480    0.74350    0.75000    1.000
    H3       H        0.80770    0.76360    0.75000    1.000
    O9       O        0.65780    0.68001    0.75000    1.000
    O10      O        0.76420    0.59770    0.75000    1.000
    C22      C        0.25920    0.15140    0.75000    1.000
    C23      C        0.38400    0.18370    0.75000    1.000
    C24      C        0.38480    0.24350    0.75000    1.000
    H4       H        0.30770    0.26360    0.75000    1.000
    O11      O        0.15780    0.18001    0.75000    1.000
    O12      O        0.26420    0.09770    0.75000    1.000
    C25      C        0.75920    0.34860    0.25000    1.000
    C26      C        0.88400    0.31630    0.25000    1.000
    C27      C        0.88480    0.25650    0.25000    1.000
    H5       H        0.80770    0.23640    0.25000    1.000
    O13      O        0.65780    0.31999    0.25000    1.000
    O14      O        0.76420    0.40230    0.25000    1.000
    C28      C        0.25920    0.84860    0.25000    1.000
    C29      C        0.38400    0.81630    0.25000    1.000
    C30      C        0.38480    0.75650    0.25000    1.000
    H6       H        0.30770    0.73640    0.25000    1.000
    O15      O        0.15780    0.81999    0.25000    1.000
    O16      O        0.26420    0.90230    0.25000    1.000
    C31      C        0.24080    0.65140    0.75000    1.000
    C32      C        0.11600    0.68370    0.75000    1.000
    C33      C        0.11520    0.74350    0.75000    1.000
    H7       H        0.19230    0.76360    0.75000    1.000
    O17      O        0.34220    0.68001    0.75000    1.000
    O18      O        0.23580    0.59770    0.75000    1.000
    C34      C        0.74080    0.15140    0.75000    1.000
    C35      C        0.61600    0.18370    0.75000    1.000
    C36      C        0.61520    0.24350    0.75000    1.000
    H8       H        0.69230    0.26360    0.75000    1.000
    O19      O        0.84220    0.18001    0.75000    1.000
    O20      O        0.73580    0.09770    0.75000    1.000
    N1       N        0.00000    0.07730    0.34300    1.000
    N2       N        0.00000    0.13092    0.40950    1.000
    N3       N        0.50000    0.57730    0.34300    1.000
    N4       N        0.50000    0.63092    0.40950    1.000
    N5       N        0.00000    0.92270    0.84300    1.000
    N6       N        0.00000    0.86908    0.90950    1.000
    N7       N        0.50000    0.42270    0.84300    1.000
    N8       N        0.50000    0.36908    0.90950    1.000
    N9       N        0.00000    0.07730    0.15700    1.000
    N10      N        0.00000    0.13092    0.09050    1.000
    N11      N        0.50000    0.57730    0.15700    1.000
    N12      N        0.50000    0.63092    0.09050    1.000
    N13      N        0.00000    0.92270    0.65700    1.000
    N14      N        0.00000    0.86908    0.59050    1.000
    N15      N        0.50000    0.42270    0.65700    1.000
    N16      N        0.50000    0.36908    0.59050    1.000
