# CIF file generated by openbabel 3.1.0, see https://openbabel.org
data_I
_chemical_name_common 'image0'
_cell_length_a 7.951
_cell_length_b 16.819
_cell_length_c 15.189
_cell_angle_alpha 90
_cell_angle_beta 104.29
_cell_angle_gamma 90
_space_group_name_H-M_alt 'P 1'
_space_group_name_Hall 'P 1'
loop_
    _symmetry_equiv_pos_as_xyz
    x,y,z
loop_
    _atom_site_label
    _atom_site_type_symbol
    _atom_site_fract_x
    _atom_site_fract_y
    _atom_site_fract_z
    _atom_site_occupancy
    Mo1      Mo       0.18692    0.66443    0.33848    1.000
    Mn1      Mn       0.32830    0.56050    0.69242    1.000
    N1       N        0.27850    0.59340    0.54940    1.000
    N2       N        0.48090    0.53470    0.30850    1.000
    N3       N        0.10830    0.47640    0.67020    1.000
    N4       N        0.19470    0.83160    0.22910    1.000
    N5       N        0.99530    0.62900    0.12430    1.000
    N6       N        0.53740    0.76470    0.44120    1.000
    N7       N        0.93810    0.77890    0.42990    1.000
    C1       C        0.24870    0.61780    0.47620    1.000
    C2       C        0.37570    0.57920    0.31540    1.000
    C3       C        0.00610    0.42740    0.66480    1.000
    C4       C        0.19430    0.77120    0.26460    1.000
    C5       C        0.06400    0.64090    0.19900    1.000
    C6       C        0.41450    0.73010    0.40790    1.000
    C7       C        0.02000    0.73900    0.39490    1.000
    Mn2      Mn       0.77584    0.67735    0.01643    1.000
    Mo2      Mo       0.81308    0.16443    0.16152    1.000
    Mn3      Mn       0.67170    0.06050    0.80758    1.000
    N8       N        0.72150    0.09340    0.95060    1.000
    N9       N        0.51910    0.03470    0.19150    1.000
    N10      N        0.89170    0.97640    0.82980    1.000
    N11      N        0.80530    0.33160    0.27090    1.000
    N12      N        0.00470    0.12900    0.37570    1.000
    N13      N        0.46260    0.26470    0.05880    1.000
    N14      N        0.06190    0.27890    0.07010    1.000
    C8       C        0.75130    0.11780    0.02380    1.000
    C9       C        0.62430    0.07920    0.18460    1.000
    C10      C        0.99390    0.92740    0.83520    1.000
    C11      C        0.80570    0.27120    0.23540    1.000
    C12      C        0.93600    0.14090    0.30100    1.000
    C13      C        0.58550    0.23010    0.09210    1.000
    C14      C        0.98000    0.23900    0.10510    1.000
    Mn4      Mn       0.22416    0.17735    0.48357    1.000
    Mo3      Mo       0.81308    0.33557    0.66152    1.000
    Mn5      Mn       0.67170    0.43950    0.30758    1.000
    N15      N        0.72150    0.40660    0.45060    1.000
    N16      N        0.51910    0.46530    0.69150    1.000
    N17      N        0.89170    0.52360    0.32980    1.000
    N18      N        0.80530    0.16840    0.77090    1.000
    N19      N        0.00470    0.37100    0.87570    1.000
    N20      N        0.46260    0.23530    0.55880    1.000
    N21      N        0.06190    0.22110    0.57010    1.000
    C15      C        0.75130    0.38220    0.52380    1.000
    C16      C        0.62430    0.42080    0.68460    1.000
    C17      C        0.99390    0.57260    0.33520    1.000
    C18      C        0.80570    0.22880    0.73540    1.000
    C19      C        0.93600    0.35910    0.80100    1.000
    C20      C        0.58550    0.26990    0.59210    1.000
    C21      C        0.98000    0.26100    0.60510    1.000
    Mn6      Mn       0.22416    0.32265    0.98357    1.000
    Mo4      Mo       0.18692    0.83557    0.83848    1.000
    Mn7      Mn       0.32830    0.93950    0.19242    1.000
    N22      N        0.27850    0.90660    0.04940    1.000
    N23      N        0.48090    0.96530    0.80850    1.000
    N24      N        0.10830    0.02360    0.17020    1.000
    N25      N        0.19470    0.66840    0.72910    1.000
    N26      N        0.99530    0.87100    0.62430    1.000
    N27      N        0.53740    0.73530    0.94120    1.000
    N28      N        0.93810    0.72110    0.92990    1.000
    C22      C        0.24870    0.88220    0.97620    1.000
    C23      C        0.37570    0.92080    0.81540    1.000
    C24      C        0.00610    0.07260    0.16480    1.000
    C25      C        0.19430    0.72880    0.76460    1.000
    C26      C        0.06400    0.85910    0.69900    1.000
    C27      C        0.41450    0.76990    0.90790    1.000
    C28      C        0.02000    0.76100    0.89490    1.000
    Mn8      Mn       0.77584    0.82265    0.51643    1.000
