# CIF file generated by openbabel 3.1.0, see https://openbabel.org
data_I
_chemical_name_common 'XAJQAC_clean'
_cell_length_a 15.6323
_cell_length_b 16.1854
_cell_length_c 14.3253
_cell_angle_alpha 90
_cell_angle_beta 103.237
_cell_angle_gamma 90
_space_group_name_H-M_alt 'P 1'
_space_group_name_Hall 'P 1'
loop_
    _symmetry_equiv_pos_as_xyz
    x,y,z
loop_
    _atom_site_label
    _atom_site_type_symbol
    _atom_site_fract_x
    _atom_site_fract_y
    _atom_site_fract_z
    _atom_site_occupancy
    H1       H        0.69970    0.50350    0.65160    1.000
    H2       H        0.91090    0.71940    0.71740    1.000
    H3       H        0.91090    0.28780    0.71530    1.000
    H4       H        0.67680    0.80180    0.82370    1.000
    H5       H        0.72810    0.65620    0.82590    1.000
    H6       H        0.80820    0.70650    0.57070    1.000
    H7       H        0.71740    0.83370    0.55020    1.000
    H8       H        0.67340    0.20750    0.82540    1.000
    H9       H        0.73140    0.35080    0.82900    1.000
    H10      H        0.80000    0.30140    0.56700    1.000
    H11      H        0.70250    0.17850    0.54590    1.000
    C12      C        0.61040    0.88130    0.65870    1.000
    C13      C        0.61030    0.12250    0.66520    1.000
    C14      C        0.68060    0.81950    0.68020    1.000
    C15      C        0.67590    0.18890    0.68170    1.000
    C16      C        0.69410    0.77570    0.76030    1.000
    C17      C        0.69130    0.23270    0.76200    1.000
    C18      C        0.73050    0.69550    0.76480    1.000
    C19      C        0.73080    0.31180    0.76670    1.000
    C20      C        0.76870    0.66560    0.69450    1.000
    C21      C        0.76820    0.34110    0.69540    1.000
    C22      C        0.76930    0.72060    0.62280    1.000
    C23      C        0.76330    0.28760    0.62120    1.000
    C24      C        0.72120    0.79530    0.61360    1.000
    C25      C        0.71220    0.21440    0.61190    1.000
    C26      C        0.81860    0.58130    0.70310    1.000
    C27      C        0.81850    0.42560    0.70240    1.000
    C28      C        0.91050    0.58240    0.72610    1.000
    C29      C        0.91040    0.42450    0.72640    1.000
    C30      C        0.95170    0.66410    0.73120    1.000
    C31      C        0.95160    0.34300    0.73060    1.000
    C32      C        0.77030    0.50350    0.68200    1.000
    C33      C        0.95550    0.50340    0.73430    1.000
    O34      O        0.55480    0.99860    0.38700    1.000
    O35      O        0.57870    0.90040    0.57440    1.000
    O36      O        0.58270    0.10520    0.73580    1.000
    O37      O        0.57370    0.89950    0.73160    1.000
    O38      O        0.57810    0.09870    0.57770    1.000
    H39      H        0.38123    0.99860    0.11300    1.000
    H40      H        0.30030    0.50350    0.84840    1.000
    H41      H        0.08910    0.71940    0.78260    1.000
    H42      H        0.08910    0.28780    0.78470    1.000
    H43      H        0.32320    0.80180    0.67630    1.000
    H44      H        0.27190    0.65620    0.67410    1.000
    H45      H        0.19180    0.70650    0.92930    1.000
    H46      H        0.28260    0.83370    0.94980    1.000
    H47      H        0.32660    0.20750    0.67460    1.000
    H48      H        0.26860    0.35080    0.67100    1.000
    H49      H        0.20000    0.30140    0.93300    1.000
    H50      H        0.29750    0.17850    0.95410    1.000
    C51      C        0.38960    0.88130    0.84130    1.000
    C52      C        0.38970    0.12250    0.83480    1.000
    C53      C        0.31940    0.81950    0.81980    1.000
    C54      C        0.32410    0.18890    0.81830    1.000
    C55      C        0.30590    0.77570    0.73970    1.000
    C56      C        0.30870    0.23270    0.73800    1.000
    C57      C        0.26950    0.69550    0.73520    1.000
    C58      C        0.26920    0.31180    0.73330    1.000
    C59      C        0.23130    0.66560    0.80550    1.000
    C60      C        0.23180    0.34110    0.80460    1.000
    C61      C        0.23070    0.72060    0.87720    1.000
    C62      C        0.23670    0.28760    0.87880    1.000
    C63      C        0.27880    0.79530    0.88640    1.000
    C64      C        0.28780    0.21440    0.88810    1.000
    C65      C        0.18140    0.58130    0.79690    1.000
    C66      C        0.18150    0.42560    0.79760    1.000
    C67      C        0.08950    0.58240    0.77390    1.000
    C68      C        0.08960    0.42450    0.77360    1.000
    C69      C        0.04830    0.66410    0.76880    1.000
    C70      C        0.04840    0.34300    0.76940    1.000
    C71      C        0.22970    0.50350    0.81800    1.000
    C72      C        0.04450    0.50340    0.76570    1.000
    O73      O        0.44520    0.99860    0.11300    1.000
    O74      O        0.42130    0.90040    0.92560    1.000
    O75      O        0.41730    0.10520    0.76420    1.000
    O76      O        0.42630    0.89950    0.76840    1.000
    O77      O        0.42190    0.09870    0.92230    1.000
    H78      H        0.61877    0.99860    0.38700    1.000
    H79      H        0.30030    0.49650    0.34840    1.000
    H80      H        0.08910    0.28060    0.28260    1.000
    H81      H        0.08910    0.71220    0.28470    1.000
    H82      H        0.32320    0.19820    0.17630    1.000
    H83      H        0.27190    0.34380    0.17410    1.000
    H84      H        0.19180    0.29350    0.42930    1.000
    H85      H        0.28260    0.16630    0.44980    1.000
    H86      H        0.32660    0.79250    0.17460    1.000
    H87      H        0.26860    0.64920    0.17100    1.000
    H88      H        0.20000    0.69860    0.43300    1.000
    H89      H        0.29750    0.82150    0.45410    1.000
    C90      C        0.38960    0.11870    0.34130    1.000
    C91      C        0.38970    0.87750    0.33480    1.000
    C92      C        0.31940    0.18050    0.31980    1.000
    C93      C        0.32410    0.81110    0.31830    1.000
    C94      C        0.30590    0.22430    0.23970    1.000
    C95      C        0.30870    0.76730    0.23800    1.000
    C96      C        0.26950    0.30450    0.23520    1.000
    C97      C        0.26920    0.68820    0.23330    1.000
    C98      C        0.23130    0.33440    0.30550    1.000
    C99      C        0.23180    0.65890    0.30460    1.000
    C100     C        0.23070    0.27940    0.37720    1.000
    C101     C        0.23670    0.71240    0.37880    1.000
    C102     C        0.27880    0.20470    0.38640    1.000
    C103     C        0.28780    0.78560    0.38810    1.000
    C104     C        0.18140    0.41870    0.29690    1.000
    C105     C        0.18150    0.57440    0.29760    1.000
    C106     C        0.08950    0.41760    0.27390    1.000
    C107     C        0.08960    0.57550    0.27360    1.000
    C108     C        0.04830    0.33590    0.26880    1.000
    C109     C        0.04840    0.65700    0.26940    1.000
    C110     C        0.22970    0.49650    0.31800    1.000
    C111     C        0.04450    0.49660    0.26570    1.000
    O112     O        0.44520    0.00140    0.61300    1.000
    O113     O        0.42130    0.09960    0.42560    1.000
    O114     O        0.41730    0.89480    0.26420    1.000
    O115     O        0.42630    0.10050    0.26840    1.000
    O116     O        0.42190    0.90130    0.42230    1.000
    H117     H        0.61877    0.00140    0.88700    1.000
    H118     H        0.69970    0.49650    0.15160    1.000
    H119     H        0.91090    0.28060    0.21740    1.000
    H120     H        0.91090    0.71220    0.21530    1.000
    H121     H        0.67680    0.19820    0.32370    1.000
    H122     H        0.72810    0.34380    0.32590    1.000
    H123     H        0.80820    0.29350    0.07070    1.000
    H124     H        0.71740    0.16630    0.05020    1.000
    H125     H        0.67340    0.79250    0.32540    1.000
    H126     H        0.73140    0.64920    0.32900    1.000
    H127     H        0.80000    0.69860    0.06700    1.000
    H128     H        0.70250    0.82150    0.04590    1.000
    C129     C        0.61040    0.11870    0.15870    1.000
    C130     C        0.61030    0.87750    0.16520    1.000
    C131     C        0.68060    0.18050    0.18020    1.000
    C132     C        0.67590    0.81110    0.18170    1.000
    C133     C        0.69410    0.22430    0.26030    1.000
    C134     C        0.69130    0.76730    0.26200    1.000
    C135     C        0.73050    0.30450    0.26480    1.000
    C136     C        0.73080    0.68820    0.26670    1.000
    C137     C        0.76870    0.33440    0.19450    1.000
    C138     C        0.76820    0.65890    0.19540    1.000
    C139     C        0.76930    0.27940    0.12280    1.000
    C140     C        0.76330    0.71240    0.12120    1.000
    C141     C        0.72120    0.20470    0.11360    1.000
    C142     C        0.71220    0.78560    0.11190    1.000
    C143     C        0.81860    0.41870    0.20310    1.000
    C144     C        0.81850    0.57440    0.20240    1.000
    C145     C        0.91050    0.41760    0.22610    1.000
    C146     C        0.91040    0.57550    0.22640    1.000
    C147     C        0.95170    0.33590    0.23120    1.000
    C148     C        0.95160    0.65700    0.23060    1.000
    C149     C        0.77030    0.49650    0.18200    1.000
    C150     C        0.95550    0.49660    0.23430    1.000
    O151     O        0.55480    0.00140    0.88700    1.000
    O152     O        0.57870    0.09960    0.07440    1.000
    O153     O        0.58270    0.89480    0.23580    1.000
    O154     O        0.57370    0.10050    0.23160    1.000
    O155     O        0.57810    0.90130    0.07770    1.000
    H156     H        0.38123    0.00140    0.61300    1.000
    In157    In       0.50000    0.00000    0.50000    1.000
    In158    In       0.50000    0.00000    0.00000    1.000
    In159    In       0.50000    0.00820    0.75000    1.000
    In160    In       0.50000    0.99180    0.25000    1.000
