# CIF file generated by openbabel 3.1.0, see https://openbabel.org
data_I
_chemical_name_common 'image0'
_cell_length_a 26.1577
_cell_length_b 26.1577
_cell_length_c 6.8671
_cell_angle_alpha 90
_cell_angle_beta 90
_cell_angle_gamma 120
_space_group_name_H-M_alt 'P 1'
_space_group_name_Hall 'P 1'
loop_
    _symmetry_equiv_pos_as_xyz
    x,y,z
loop_
    _atom_site_label
    _atom_site_type_symbol
    _atom_site_fract_x
    _atom_site_fract_y
    _atom_site_fract_z
    _atom_site_occupancy
    Fe1      Fe       0.38289    0.35225    0.14280    1.000
    O1       O        0.32676    0.29450    0.36670    1.000
    O2       O        0.30187    0.22741    0.60000    1.000
    O3       O        0.35501    0.27326    0.00930    1.000
    C1       C        0.31893    0.24522    0.42730    1.000
    C2       C        0.32803    0.20589    0.28570    1.000
    C3       C        0.34464    0.22113    0.09330    1.000
    C4       C        0.35214    0.18326    0.97380    1.000
    H1       H        0.36023    0.19266    0.82960    1.000
    Fe2      Fe       0.04956    0.68558    0.47613    1.000
    O4       O        0.99343    0.62783    0.70003    1.000
    O5       O        0.96854    0.56074    0.93333    1.000
    O6       O        0.02168    0.60659    0.34263    1.000
    C5       C        0.98560    0.57855    0.76063    1.000
    C6       C        0.99470    0.53922    0.61903    1.000
    C7       C        0.01131    0.55446    0.42663    1.000
    C8       C        0.01881    0.51659    0.30713    1.000
    H2       H        0.02690    0.52599    0.16293    1.000
    Fe3      Fe       0.71622    0.01892    0.80947    1.000
    O7       O        0.66009    0.96117    0.03337    1.000
    O8       O        0.63520    0.89408    0.26667    1.000
    O9       O        0.68834    0.93993    0.67597    1.000
    C9       C        0.65226    0.91189    0.09397    1.000
    C10      C        0.66136    0.87256    0.95237    1.000
    C11      C        0.67797    0.88780    0.75997    1.000
    C12      C        0.68547    0.84993    0.64047    1.000
    H3       H        0.69356    0.85933    0.49627    1.000
    Fe4      Fe       0.64775    0.03064    0.14280    1.000
    O10      O        0.70550    0.03226    0.36670    1.000
    O11      O        0.77259    0.07446    0.60000    1.000
    O12      O        0.72674    0.08175    0.00930    1.000
    C13      C        0.75478    0.07371    0.42730    1.000
    C14      C        0.79411    0.12214    0.28570    1.000
    C15      C        0.77887    0.12351    0.09330    1.000
    C16      C        0.81674    0.16888    0.97380    1.000
    H4       H        0.80734    0.16757    0.82960    1.000
    Fe5      Fe       0.31442    0.36397    0.47613    1.000
    O13      O        0.37217    0.36559    0.70003    1.000
    O14      O        0.43926    0.40779    0.93333    1.000
    O15      O        0.39341    0.41508    0.34263    1.000
    C17      C        0.42145    0.40704    0.76063    1.000
    C18      C        0.46078    0.45547    0.61903    1.000
    C19      C        0.44554    0.45684    0.42663    1.000
    C20      C        0.48341    0.50221    0.30713    1.000
    H5       H        0.47401    0.50090    0.16293    1.000
    Fe6      Fe       0.98108    0.69731    0.80947    1.000
    O16      O        0.03883    0.69893    0.03337    1.000
    O17      O        0.10592    0.74113    0.26667    1.000
    O18      O        0.06007    0.74842    0.67597    1.000
    C21      C        0.08811    0.74038    0.09397    1.000
    C22      C        0.12744    0.78881    0.95237    1.000
    C23      C        0.11220    0.79018    0.75997    1.000
    C24      C        0.15007    0.83555    0.64047    1.000
    H6       H        0.14067    0.83424    0.49627    1.000
    Fe7      Fe       0.96936    0.61711    0.14280    1.000
    O19      O        0.96774    0.67324    0.36670    1.000
    O20      O        0.92554    0.69813    0.60000    1.000
    O21      O        0.91825    0.64499    0.00930    1.000
    C25      C        0.92629    0.68107    0.42730    1.000
    C26      C        0.87786    0.67197    0.28570    1.000
    C27      C        0.87649    0.65536    0.09330    1.000
    C28      C        0.83112    0.64786    0.97380    1.000
    H7       H        0.83243    0.63977    0.82960    1.000
    Fe8      Fe       0.63603    0.95044    0.47613    1.000
    O22      O        0.63441    0.00657    0.70003    1.000
    O23      O        0.59221    0.03146    0.93333    1.000
    O24      O        0.58492    0.97832    0.34263    1.000
    C29      C        0.59296    0.01440    0.76063    1.000
    C30      C        0.54453    0.00530    0.61903    1.000
    C31      C        0.54316    0.98869    0.42663    1.000
    C32      C        0.49779    0.98119    0.30713    1.000
    H8       H        0.49910    0.97310    0.16293    1.000
    Fe9      Fe       0.30269    0.28378    0.80947    1.000
    O25      O        0.30107    0.33991    0.03337    1.000
    O26      O        0.25887    0.36480    0.26667    1.000
    O27      O        0.25158    0.31166    0.67597    1.000
    C33      C        0.25962    0.34774    0.09397    1.000
    C34      C        0.21119    0.33864    0.95237    1.000
    C35      C        0.20982    0.32203    0.75997    1.000
    C36      C        0.16445    0.31453    0.64047    1.000
    H9       H        0.16576    0.30644    0.49627    1.000
    Fe10     Fe       0.61711    0.64775    0.85720    1.000
    O28      O        0.67324    0.70550    0.63330    1.000
    O29      O        0.69813    0.77259    0.40000    1.000
    O30      O        0.64499    0.72674    0.99070    1.000
    C37      C        0.68107    0.75478    0.57270    1.000
    C38      C        0.67197    0.79411    0.71430    1.000
    C39      C        0.65536    0.77887    0.90670    1.000
    C40      C        0.64786    0.81674    0.02620    1.000
    H10      H        0.63977    0.80734    0.17040    1.000
    Fe11     Fe       0.28378    0.98108    0.19053    1.000
    O31      O        0.33991    0.03883    0.96663    1.000
    O32      O        0.36480    0.10592    0.73333    1.000
    O33      O        0.31166    0.06007    0.32403    1.000
    C41      C        0.34774    0.08811    0.90603    1.000
    C42      C        0.33864    0.12744    0.04763    1.000
    C43      C        0.32203    0.11220    0.24003    1.000
    C44      C        0.31453    0.15007    0.35953    1.000
    H11      H        0.30644    0.14067    0.50373    1.000
    Fe12     Fe       0.95044    0.31442    0.52387    1.000
    O34      O        0.00657    0.37217    0.29997    1.000
    O35      O        0.03146    0.43926    0.06667    1.000
    O36      O        0.97832    0.39341    0.65737    1.000
    C45      C        0.01440    0.42145    0.23937    1.000
    C46      C        0.00530    0.46078    0.38097    1.000
    C47      C        0.98869    0.44554    0.57337    1.000
    C48      C        0.98119    0.48341    0.69287    1.000
    H12      H        0.97310    0.47401    0.83707    1.000
    Fe13     Fe       0.35225    0.96936    0.85720    1.000
    O37      O        0.29450    0.96774    0.63330    1.000
    O38      O        0.22741    0.92554    0.40000    1.000
    O39      O        0.27326    0.91825    0.99070    1.000
    C49      C        0.24522    0.92629    0.57270    1.000
    C50      C        0.20589    0.87786    0.71430    1.000
    C51      C        0.22113    0.87649    0.90670    1.000
    C52      C        0.18326    0.83112    0.02620    1.000
    H13      H        0.19266    0.83243    0.17040    1.000
    Fe14     Fe       0.01892    0.30269    0.19053    1.000
    O40      O        0.96117    0.30107    0.96663    1.000
    O41      O        0.89408    0.25887    0.73333    1.000
    O42      O        0.93993    0.25158    0.32403    1.000
    C53      C        0.91189    0.25962    0.90603    1.000
    C54      C        0.87256    0.21119    0.04763    1.000
    C55      C        0.88780    0.20982    0.24003    1.000
    C56      C        0.84993    0.16445    0.35953    1.000
    H14      H        0.85933    0.16576    0.50373    1.000
    Fe15     Fe       0.68558    0.63603    0.52387    1.000
    O43      O        0.62783    0.63441    0.29997    1.000
    O44      O        0.56074    0.59221    0.06667    1.000
    O45      O        0.60659    0.58492    0.65737    1.000
    C57      C        0.57855    0.59296    0.23937    1.000
    C58      C        0.53922    0.54453    0.38097    1.000
    C59      C        0.55446    0.54316    0.57337    1.000
    C60      C        0.51659    0.49779    0.69287    1.000
    H15      H        0.52599    0.49910    0.83707    1.000
    Fe16     Fe       0.03064    0.38289    0.85720    1.000
    O46      O        0.03226    0.32676    0.63330    1.000
    O47      O        0.07446    0.30187    0.40000    1.000
    O48      O        0.08175    0.35501    0.99070    1.000
    C61      C        0.07371    0.31893    0.57270    1.000
    C62      C        0.12214    0.32803    0.71430    1.000
    C63      C        0.12351    0.34464    0.90670    1.000
    C64      C        0.16888    0.35214    0.02620    1.000
    H16      H        0.16757    0.36023    0.17040    1.000
    Fe17     Fe       0.69731    0.71622    0.19053    1.000
    O49      O        0.69893    0.66009    0.96663    1.000
    O50      O        0.74113    0.63520    0.73333    1.000
    O51      O        0.74842    0.68834    0.32403    1.000
    C65      C        0.74038    0.65226    0.90603    1.000
    C66      C        0.78881    0.66136    0.04763    1.000
    C67      C        0.79018    0.67797    0.24003    1.000
    C68      C        0.83555    0.68547    0.35953    1.000
    H17      H        0.83424    0.69356    0.50373    1.000
    Fe18     Fe       0.36397    0.04956    0.52387    1.000
    O52      O        0.36559    0.99343    0.29997    1.000
    O53      O        0.40779    0.96854    0.06667    1.000
    O54      O        0.41508    0.02168    0.65737    1.000
    C69      C        0.40704    0.98560    0.23937    1.000
    C70      C        0.45547    0.99470    0.38097    1.000
    C71      C        0.45684    0.01131    0.57337    1.000
    C72      C        0.50221    0.01881    0.69287    1.000
    H18      H        0.50090    0.02690    0.83707    1.000
