# CIF file generated by openbabel 3.1.0, see https://openbabel.org
data_I
_chemical_name_common 'image0'
_cell_length_a 12.3484
_cell_length_b 12.466
_cell_length_c 14.098
_cell_angle_alpha 97.148
_cell_angle_beta 108.384
_cell_angle_gamma 119.315
_space_group_name_H-M_alt 'P 1'
_space_group_name_Hall 'P 1'
loop_
    _symmetry_equiv_pos_as_xyz
    x,y,z
loop_
    _atom_site_label
    _atom_site_type_symbol
    _atom_site_fract_x
    _atom_site_fract_y
    _atom_site_fract_z
    _atom_site_occupancy
    Cu1      Cu       0.09316    0.42791    0.58510    1.000
    Cu2      Cu       0.83913    0.31478    0.41109    1.000
    Cu3      Cu       0.10148    0.50696    0.40835    1.000
    Mn1      Mn       0.11058    0.01112    0.10698    1.000
    Mn2      Mn       0.25358    0.31832    0.05971    1.000
    S1       S        0.96085    0.28992    0.33229    1.000
    S2       S        0.94951    0.36372    0.66347    1.000
    S3       S        0.29938    0.62158    0.65959    1.000
    O1       O        0.07580    0.12690    0.20693    1.000
    O2       O        0.86250    0.98420    0.18659    1.000
    O3       O        0.89700    0.10410    0.78120    1.000
    O4       O        0.78010    0.18950    0.79990    1.000
    O5       O        0.61980    0.65620    0.78420    1.000
    O6       O        0.66830    0.85350    0.78334    1.000
    O7       O        0.11310    0.11260    0.99459    1.000
    N1       N        0.09670    0.27690    0.51690    1.000
    N2       N        0.75620    0.17520    0.47610    1.000
    N3       N        0.30480    0.57600    0.47070    1.000
    C1       C        0.03870    0.22440    0.41020    1.000
    C2       C        0.04060    0.12150    0.36090    1.000
    C3       C        0.10170    0.07140    0.42320    1.000
    H1       H        0.10270    0.00190    0.39200    1.000
    C4       C        0.16160    0.12620    0.53320    1.000
    H2       H        0.20400    0.09460    0.57670    1.000
    C5       C        0.15670    0.22840    0.57640    1.000
    H3       H        0.19690    0.26510    0.64990    1.000
    C6       C        0.98650    0.07280    0.24220    1.000
    C7       C        0.65010    0.05360    0.41250    1.000
    H4       H        0.61550    0.03540    0.33940    1.000
    C8       C        0.59040    0.95450    0.45100    1.000
    H5       H        0.51630    0.87110    0.40510    1.000
    C9       C        0.64300    0.98200    0.55980    1.000
    H6       H        0.60470    0.91660    0.58780    1.000
    C10      C        0.75240    0.10650    0.62660    1.000
    C11      C        0.80770    0.20310    0.58150    1.000
    C12      C        0.81380    0.13670    0.74530    1.000
    C13      C        0.38200    0.62450    0.57650    1.000
    C14      C        0.52280    0.67580    0.62070    1.000
    C15      C        0.58280    0.67420    0.55310    1.000
    H7       H        0.67630    0.70720    0.58080    1.000
    C16      C        0.50370    0.62340    0.44400    1.000
    H8       H        0.54270    0.62140    0.39760    1.000
    C17      C        0.36610    0.57600    0.40660    1.000
    H9       H        0.31260    0.54220    0.33360    1.000
    C18      C        0.61060    0.73340    0.73970    1.000
    H10      H        0.13300    0.09800    0.95600    1.000
    Cu4      Cu       0.90684    0.57209    0.41490    1.000
    Cu5      Cu       0.16087    0.68522    0.58891    1.000
    Cu6      Cu       0.89852    0.49304    0.59165    1.000
    Mn3      Mn       0.88942    0.98888    0.89302    1.000
    Mn4      Mn       0.74642    0.68168    0.94029    1.000
    S4       S        0.03915    0.71008    0.66771    1.000
    S5       S        0.05049    0.63628    0.33653    1.000
    S6       S        0.70062    0.37842    0.34041    1.000
    O8       O        0.92420    0.87310    0.79307    1.000
    O9       O        0.13750    0.01580    0.81341    1.000
    O10      O        0.10300    0.89590    0.21880    1.000
    O11      O        0.21990    0.81050    0.20010    1.000
    O12      O        0.38020    0.34380    0.21580    1.000
    O13      O        0.33170    0.14650    0.21666    1.000
    O14      O        0.88690    0.88740    0.00541    1.000
    N4       N        0.90330    0.72310    0.48310    1.000
    N5       N        0.24380    0.82480    0.52390    1.000
    N6       N        0.69520    0.42400    0.52930    1.000
    C19      C        0.96130    0.77560    0.58980    1.000
    C20      C        0.95940    0.87850    0.63910    1.000
    C21      C        0.89830    0.92860    0.57680    1.000
    H11      H        0.89730    0.99810    0.60800    1.000
    C22      C        0.83840    0.87380    0.46680    1.000
    H12      H        0.79600    0.90540    0.42330    1.000
    C23      C        0.84330    0.77160    0.42360    1.000
    H13      H        0.80310    0.73490    0.35010    1.000
    C24      C        0.01350    0.92720    0.75780    1.000
    C25      C        0.34990    0.94640    0.58750    1.000
    H14      H        0.38450    0.96460    0.66060    1.000
    C26      C        0.40960    0.04550    0.54900    1.000
    H15      H        0.48370    0.12890    0.59490    1.000
    C27      C        0.35700    0.01800    0.44020    1.000
    H16      H        0.39530    0.08340    0.41220    1.000
    C28      C        0.24760    0.89350    0.37340    1.000
    C29      C        0.19230    0.79690    0.41850    1.000
    C30      C        0.18620    0.86330    0.25470    1.000
    C31      C        0.61800    0.37550    0.42350    1.000
    C32      C        0.47720    0.32420    0.37930    1.000
    C33      C        0.41720    0.32580    0.44690    1.000
    H17      H        0.32370    0.29280    0.41920    1.000
    C34      C        0.49630    0.37660    0.55600    1.000
    H18      H        0.45730    0.37860    0.60240    1.000
    C35      C        0.63390    0.42400    0.59340    1.000
    H19      H        0.68740    0.45780    0.66640    1.000
    C36      C        0.38940    0.26660    0.26030    1.000
    H20      H        0.86700    0.90200    0.04400    1.000
