# CIF file generated by openbabel 3.1.0, see https://openbabel.org
data_I
_chemical_name_common 'GAYGAQ_clean_h'
_cell_length_a 7.1328
_cell_length_b 8.7207
_cell_length_c 9.6984
_cell_angle_alpha 116.718
_cell_angle_beta 111.576
_cell_angle_gamma 90
_space_group_name_H-M_alt 'P 1'
_space_group_name_Hall 'P 1'
loop_
    _symmetry_equiv_pos_as_xyz
    x,y,z
loop_
    _atom_site_label
    _atom_site_type_symbol
    _atom_site_fract_x
    _atom_site_fract_y
    _atom_site_fract_z
    _atom_site_occupancy
    Cu1      Cu       0.00000    0.00000    0.00000    1.000
    Cu2      Cu       0.50000    0.00000    0.00000    1.000
    C1       C        0.92988    0.67207    0.66828    1.000
    C2       C        0.57012    0.00379    0.33172    1.000
    C3       C        0.76160    0.32793    0.33172    1.000
    C4       C        0.73840    0.99621    0.66828    1.000
    C5       C        0.07012    0.32793    0.33172    1.000
    C6       C        0.42988    0.99621    0.66828    1.000
    C7       C        0.23840    0.67207    0.66828    1.000
    C8       C        0.26160    0.00379    0.33172    1.000
    C9       C        0.03911    0.58516    0.57822    1.000
    C10      C        0.46089    0.00694    0.42178    1.000
    C11      C        0.96089    0.41484    0.42178    1.000
    C12      C        0.53911    0.99306    0.57822    1.000
    N1       N        0.06168    0.81272    0.81402    1.000
    N2       N        0.43832    0.99870    0.18598    1.000
    N3       N        0.74766    0.18728    0.18598    1.000
    N4       N        0.75234    0.00130    0.81402    1.000
    N5       N        0.93832    0.18728    0.18598    1.000
    N6       N        0.56168    0.00130    0.81402    1.000
    N7       N        0.25234    0.81272    0.81402    1.000
    N8       N        0.24766    0.99870    0.18598    1.000
    H1       H        0.75775    0.62164    0.61603    1.000
    H2       H        0.74225    0.00561    0.38397    1.000
    H3       H        0.64172    0.37836    0.38397    1.000
    H4       H        0.85828    0.99439    0.61603    1.000
    H5       H        0.24225    0.37836    0.38397    1.000
    H6       H        0.25775    0.99439    0.61603    1.000
    H7       H        0.35828    0.62164    0.61603    1.000
    H8       H        0.14172    0.00561    0.38397    1.000
