# CIF file generated by openbabel 3.1.0, see https://openbabel.org
data_I
_chemical_name_common 'JORBAV_clean'
_cell_length_a 13.13
_cell_length_b 13.7619
_cell_length_c 13.8592
_cell_angle_alpha 114.002
_cell_angle_beta 112.312
_cell_angle_gamma 100.919
_space_group_name_H-M_alt 'P 1'
_space_group_name_Hall 'P 1'
loop_
    _symmetry_equiv_pos_as_xyz
    x,y,z
loop_
    _atom_site_label
    _atom_site_type_symbol
    _atom_site_fract_x
    _atom_site_fract_y
    _atom_site_fract_z
    _atom_site_occupancy
    Mn1      Mn       0.38508    0.14073    0.87046    1.000
    Mn2      Mn       0.23290    0.80474    0.35454    1.000
    Mn3      Mn       0.37836    0.45020    0.64546    1.000
    Mn4      Mn       0.76710    0.19526    0.64546    1.000
    Mn5      Mn       0.98538    0.72973    0.87046    1.000
    Mn6      Mn       0.01462    0.27027    0.12954    1.000
    Mn7      Mn       0.62164    0.54980    0.35454    1.000
    Mn8      Mn       0.61492    0.85927    0.12954    1.000
    W1       W        0.77104    0.52104    0.04208    1.000
    W2       W        0.37907    0.12907    0.25814    1.000
    W3       W        0.62093    0.87093    0.74186    1.000
    W4       W        0.22896    0.47896    0.95792    1.000
    C1       C        0.22916    0.17564    0.19900    1.000
    C2       C        0.53016    0.97664    0.80100    1.000
    C3       C        0.48709    0.30067    0.31356    1.000
    C4       C        0.25741    0.44771    0.80724    1.000
    C5       C        0.77084    0.82436    0.80100    1.000
    C6       C        0.37246    0.24132    0.41858    1.000
    C7       C        0.74453    0.68023    0.10666    1.000
    C8       C        0.61736    0.49634    0.88672    1.000
    C9       C        0.95017    0.64047    0.19276    1.000
    C10      C        0.13784    0.38747    0.01542    1.000
    C11      C        0.62658    0.87052    0.89944    1.000
    C12      C        0.74259    0.55229    0.19276    1.000
    C13      C        0.86216    0.61253    0.98458    1.000
    C14      C        0.86213    0.42643    0.10666    1.000
    C15      C        0.62242    0.37205    0.98458    1.000
    C16      C        0.37342    0.12948    0.10056    1.000
    C17      C        0.62754    0.75868    0.58142    1.000
    C18      C        0.45388    0.82274    0.58142    1.000
    C19      C        0.22714    0.97108    0.10056    1.000
    C20      C        0.76936    0.39038    0.88672    1.000
    C21      C        0.37758    0.62795    0.01542    1.000
    C22      C        0.54612    0.17726    0.41858    1.000
    C23      C        0.51291    0.69933    0.68644    1.000
    C24      C        0.38264    0.50366    0.11328    1.000
    C25      C        0.77286    0.02892    0.89944    1.000
    C26      C        0.25547    0.31977    0.89334    1.000
    C27      C        0.46984    0.02336    0.19900    1.000
    C28      C        0.23064    0.60962    0.11328    1.000
    C29      C        0.04983    0.35953    0.80724    1.000
    C30      C        0.13787    0.57357    0.89334    1.000
    C31      C        0.67353    0.98711    0.68644    1.000
    C32      C        0.32647    0.01289    0.31356    1.000
    N1       N        0.46369    0.52105    0.19976    1.000
    N2       N        0.04757    0.70362    0.27002    1.000
    N3       N        0.48161    0.03238    0.83138    1.000
    N4       N        0.53631    0.47895    0.80024    1.000
    N5       N        0.70254    0.05328    0.66182    1.000
    N6       N        0.72953    0.76371    0.13964    1.000
    N7       N        0.15023    0.20100    0.16862    1.000
    N8       N        0.54072    0.39146    0.33818    1.000
    N9       N        0.45928    0.60854    0.66182    1.000
    N10      N        0.37156    0.30401    0.50228    1.000
    N11      N        0.91011    0.37593    0.13964    1.000
    N12      N        0.27755    0.43360    0.72998    1.000
    N13      N        0.14399    0.88846    0.01782    1.000
    N14      N        0.08653    0.33641    0.04282    1.000
    N15      N        0.62844    0.69599    0.49772    1.000
    N16      N        0.08989    0.62407    0.86036    1.000
    N17      N        0.45629    0.70641    0.04282    1.000
    N18      N        0.62617    0.87064    0.98218    1.000
    N19      N        0.91347    0.66359    0.95718    1.000
    N20      N        0.72245    0.56640    0.27002    1.000
    N21      N        0.76393    0.32129    0.80024    1.000
    N22      N        0.37383    0.12936    0.01782    1.000
    N23      N        0.51839    0.96762    0.16862    1.000
    N24      N        0.95243    0.29638    0.72998    1.000
    N25      N        0.23607    0.67871    0.19976    1.000
    N26      N        0.54371    0.29359    0.95718    1.000
    N27      N        0.36928    0.80173    0.49772    1.000
    N28      N        0.84977    0.79900    0.83138    1.000
    N29      N        0.85601    0.11154    0.98218    1.000
    N30      N        0.63072    0.19827    0.50228    1.000
    N31      N        0.27047    0.23629    0.86036    1.000
    N32      N        0.29746    0.94672    0.33818    1.000
