# CIF file generated by openbabel 3.1.0, see https://openbabel.org
data_I
_chemical_name_common 'image0'
_cell_length_a 8.778
_cell_length_b 8.778
_cell_length_c 30.64
_cell_angle_alpha 90
_cell_angle_beta 90
_cell_angle_gamma 120
_space_group_name_H-M_alt 'P 1'
_space_group_name_Hall 'P 1'
loop_
    _symmetry_equiv_pos_as_xyz
    x,y,z
loop_
    _atom_site_label
    _atom_site_type_symbol
    _atom_site_fract_x
    _atom_site_fract_y
    _atom_site_fract_z
    _atom_site_occupancy
    Cd1      Cd       0.00000    0.00000    0.00000    1.000
    Cd2      Cd       0.66667    0.33333    0.33333    1.000
    Cd3      Cd       0.33333    0.66667    0.66667    1.000
    Cd4      Cd       0.33333    0.66667    0.07489    1.000
    C1       C        0.33333    0.66667    0.14870    1.000
    Cd5      Cd       0.00000    0.00000    0.40822    1.000
    C2       C        0.00000    0.00000    0.48203    1.000
    Cd6      Cd       0.66667    0.33333    0.74156    1.000
    C3       C        0.66667    0.33333    0.81537    1.000
    Cd7      Cd       0.66667    0.33333    0.92511    1.000
    C4       C        0.66667    0.33333    0.85130    1.000
    Cd8      Cd       0.33333    0.66667    0.25844    1.000
    C5       C        0.33333    0.66667    0.18463    1.000
    Cd9      Cd       0.00000    0.00000    0.59178    1.000
    C6       C        0.00000    0.00000    0.51797    1.000
    N1       N        0.12710    0.87290    0.04360    1.000
    C7       C        0.19340    0.80660    0.05500    1.000
    N2       N        0.79377    0.20623    0.37693    1.000
    C8       C        0.86007    0.13993    0.38833    1.000
    N3       N        0.46043    0.53957    0.71027    1.000
    C9       C        0.52673    0.47327    0.72167    1.000
    N4       N        0.12710    0.25420    0.04360    1.000
    C10      C        0.19340    0.38680    0.05500    1.000
    N5       N        0.79377    0.58753    0.37693    1.000
    C11      C        0.86007    0.72013    0.38833    1.000
    N6       N        0.46043    0.92087    0.71027    1.000
    C12      C        0.52673    0.05347    0.72167    1.000
    N7       N        0.74580    0.87290    0.04360    1.000
    C13      C        0.61320    0.80660    0.05500    1.000
    N8       N        0.41247    0.20623    0.37693    1.000
    C14      C        0.27987    0.13993    0.38833    1.000
    N9       N        0.07913    0.53957    0.71027    1.000
    C15      C        0.94653    0.47327    0.72167    1.000
    N10      N        0.87290    0.12710    0.95640    1.000
    C16      C        0.80660    0.19340    0.94500    1.000
    N11      N        0.53957    0.46043    0.28973    1.000
    C17      C        0.47327    0.52673    0.27833    1.000
    N12      N        0.20623    0.79377    0.62307    1.000
    C18      C        0.13993    0.86007    0.61167    1.000
    N13      N        0.25420    0.12710    0.95640    1.000
    C19      C        0.38680    0.19340    0.94500    1.000
    N14      N        0.92087    0.46043    0.28973    1.000
    C20      C        0.05347    0.52673    0.27833    1.000
    N15      N        0.58753    0.79377    0.62307    1.000
    C21      C        0.72013    0.86007    0.61167    1.000
    N16      N        0.87290    0.74580    0.95640    1.000
    C22      C        0.80660    0.61320    0.94500    1.000
    N17      N        0.53957    0.07913    0.28973    1.000
    C23      C        0.47327    0.94653    0.27833    1.000
    N18      N        0.20623    0.41247    0.62307    1.000
    C24      C        0.13993    0.27987    0.61167    1.000
