# CIF file generated by openbabel 3.1.0, see https://openbabel.org
data_I
_chemical_name_common 'BETGAK_clean'
_cell_length_a 13.5095
_cell_length_b 14.5356
_cell_length_c 16.2525
_cell_angle_alpha 116.563
_cell_angle_beta 99.0218
_cell_angle_gamma 90
_space_group_name_H-M_alt 'P 1'
_space_group_name_Hall 'P 1'
loop_
    _symmetry_equiv_pos_as_xyz
    x,y,z
loop_
    _atom_site_label
    _atom_site_type_symbol
    _atom_site_fract_x
    _atom_site_fract_y
    _atom_site_fract_z
    _atom_site_occupancy
    La1      La       0.45671    0.89516    0.36161    1.000
    La2      La       0.04329    0.53355    0.63839    1.000
    La3      La       0.54329    0.10484    0.63839    1.000
    La4      La       0.95671    0.46645    0.36161    1.000
    H1       H        0.56410    0.68140    0.05420    1.000
    H2       H        0.62160    0.64400    0.91720    1.000
    H3       H        0.60650    0.93750    0.96520    1.000
    H4       H        0.55440    0.97660    0.10580    1.000
    H5       H        0.64900    0.68500    0.79000    1.000
    H6       H        0.57770    0.87830    0.67880    1.000
    H7       H        0.76890    0.67880    0.70820    1.000
    H8       H        0.69400    0.67920    0.45800    1.000
    H9       H        0.93590    0.62720    0.94580    1.000
    H10      H        0.87840    0.72680    0.08280    1.000
    H11      H        0.89350    0.97230    0.03480    1.000
    H12      H        0.94560    0.87080    0.89420    1.000
    H13      H        0.85100    0.89500    0.21000    1.000
    H14      H        0.92230    0.19950    0.32120    1.000
    H15      H        0.73110    0.97060    0.29180    1.000
    H16      H        0.80600    0.22120    0.54200    1.000
    H17      H        0.43590    0.31860    0.94580    1.000
    H18      H        0.37840    0.35600    0.08280    1.000
    H19      H        0.39350    0.06250    0.03480    1.000
    H20      H        0.44560    0.02340    0.89420    1.000
    H21      H        0.35100    0.31500    0.21000    1.000
    H22      H        0.42230    0.12170    0.32120    1.000
    H23      H        0.23110    0.32120    0.29180    1.000
    H24      H        0.30600    0.32080    0.54200    1.000
    H25      H        0.06410    0.37280    0.05420    1.000
    H26      H        0.12160    0.27320    0.91720    1.000
    H27      H        0.10650    0.02770    0.96520    1.000
    H28      H        0.05440    0.12920    0.10580    1.000
    H29      H        0.14900    0.10500    0.79000    1.000
    H30      H        0.07770    0.80050    0.67880    1.000
    H31      H        0.26890    0.02940    0.70820    1.000
    H32      H        0.19400    0.77880    0.45800    1.000
    C1       C        0.51940    0.85979    0.18598    1.000
    C2       C        0.55530    0.83440    0.09580    1.000
    C3       C        0.57400    0.73360    0.03740    1.000
    C4       C        0.60720    0.71100    0.95480    1.000
    C5       C        0.61910    0.78700    0.92780    1.000
    C6       C        0.59910    0.88610    0.98340    1.000
    C7       C        0.56750    0.90930    0.06780    1.000
    C8       C        0.64380    0.75630    0.83400    1.000
    C9       C        0.56940    0.82571    0.49762    1.000
    C10      C        0.62640    0.78426    0.55892    1.000
    C11      C        0.61680    0.82337    0.65254    1.000
    C12      C        0.66700    0.77909    0.70678    1.000
    C13      C        0.73240    0.70424    0.67048    1.000
    C14      C        0.74410    0.66639    0.57658    1.000
    C15      C        0.68890    0.70568    0.52076    1.000
    C16      C        0.81570    0.58614    0.53888    1.000
    C17      C        0.98060    0.67381    0.81402    1.000
    C18      C        0.94470    0.73860    0.90420    1.000
    C19      C        0.92600    0.69620    0.96260    1.000
    C20      C        0.89280    0.75620    0.04520    1.000
    C21      C        0.88090    0.85920    0.07220    1.000
    C22      C        0.90090    0.90270    0.01660    1.000
    C23      C        0.93250    0.84150    0.93220    1.000
    C24      C        0.85620    0.92230    0.16600    1.000
    C25      C        0.93060    0.32809    0.50238    1.000
    C26      C        0.87360    0.22534    0.44108    1.000
    C27      C        0.88320    0.17083    0.34746    1.000
    C28      C        0.83300    0.07231    0.29322    1.000
    C29      C        0.76760    0.03376    0.32952    1.000
    C30      C        0.75590    0.08981    0.42342    1.000
    C31      C        0.81110    0.18492    0.47924    1.000
    C32      C        0.68430    0.04726    0.46112    1.000
    C33      C        0.48060    0.14021    0.81402    1.000
    C34      C        0.44470    0.16560    0.90420    1.000
    C35      C        0.42600    0.26640    0.96260    1.000
    C36      C        0.39280    0.28900    0.04520    1.000
    C37      C        0.38090    0.21300    0.07220    1.000
    C38      C        0.40090    0.11390    0.01660    1.000
    C39      C        0.43250    0.09070    0.93220    1.000
    C40      C        0.35620    0.24370    0.16600    1.000
    C41      C        0.43060    0.17429    0.50238    1.000
    C42      C        0.37360    0.21574    0.44108    1.000
    C43      C        0.38320    0.17663    0.34746    1.000
    C44      C        0.33300    0.22091    0.29322    1.000
    C45      C        0.26760    0.29576    0.32952    1.000
    C46      C        0.25590    0.33361    0.42342    1.000
    C47      C        0.31110    0.29432    0.47924    1.000
    C48      C        0.18430    0.41386    0.46112    1.000
    C49      C        0.01940    0.32619    0.18598    1.000
    C50      C        0.05530    0.26140    0.09580    1.000
    C51      C        0.07400    0.30380    0.03740    1.000
    C52      C        0.10720    0.24380    0.95480    1.000
    C53      C        0.11910    0.14080    0.92780    1.000
    C54      C        0.09910    0.09730    0.98340    1.000
    C55      C        0.06750    0.15850    0.06780    1.000
    C56      C        0.14380    0.07770    0.83400    1.000
    C57      C        0.06940    0.67191    0.49762    1.000
    C58      C        0.12640    0.77466    0.55892    1.000
    C59      C        0.11680    0.82917    0.65254    1.000
    C60      C        0.16700    0.92769    0.70678    1.000
    C61      C        0.23240    0.96624    0.67048    1.000
    C62      C        0.24410    0.91019    0.57658    1.000
    C63      C        0.18890    0.81508    0.52076    1.000
    C64      C        0.31570    0.95274    0.53888    1.000
    N1       N        0.64870    0.81828    0.80016    1.000
    N2       N        0.85130    0.01812    0.19984    1.000
    N3       N        0.35130    0.18172    0.19984    1.000
    N4       N        0.14870    0.98188    0.80016    1.000
    O1       O        0.51200    0.78723    0.20766    1.000
    O2       O        0.49850    0.94885    0.23570    1.000
    O3       O        0.55380    0.77249    0.41158    1.000
    O4       O        0.53730    0.91630    0.53640    1.000
    O5       O        0.86520    0.55720    0.59420    1.000
    O6       O        0.82320    0.55282    0.45444    1.000
    O7       O        0.98800    0.57957    0.79234    1.000
    O8       O        0.00150    0.71315    0.76430    1.000
    O9       O        0.94620    0.36091    0.58842    1.000
    O10      O        0.96270    0.37990    0.46360    1.000
    O11      O        0.63480    0.96300    0.40580    1.000
    O12      O        0.67680    0.09838    0.54556    1.000
    O13      O        0.48800    0.21277    0.79234    1.000
    O14      O        0.50150    0.05115    0.76430    1.000
    O15      O        0.44620    0.22751    0.58842    1.000
    O16      O        0.46270    0.08370    0.46360    1.000
    O17      O        0.13480    0.44280    0.40580    1.000
    O18      O        0.17680    0.44718    0.54556    1.000
    O19      O        0.01200    0.42043    0.20766    1.000
    O20      O        0.99850    0.28685    0.23570    1.000
    O21      O        0.05380    0.63909    0.41158    1.000
    O22      O        0.03730    0.62010    0.53640    1.000
    O23      O        0.36520    0.03700    0.59420    1.000
    O24      O        0.32320    0.90162    0.45444    1.000
