# CIF file generated by openbabel 3.1.0, see https://openbabel.org
data_I
_chemical_name_common 'image0'
_cell_length_a 29.0505
_cell_length_b 29.0505
_cell_length_c 28.7967
_cell_angle_alpha 90
_cell_angle_beta 90
_cell_angle_gamma 90
_space_group_name_H-M_alt 'P 1'
_space_group_name_Hall 'P 1'
loop_
    _symmetry_equiv_pos_as_xyz
    x,y,z
loop_
    _atom_site_label
    _atom_site_type_symbol
    _atom_site_fract_x
    _atom_site_fract_y
    _atom_site_fract_z
    _atom_site_occupancy
    In1      In       0.20910    0.79089    0.38455    1.000
    In2      In       0.20388    0.88138    0.30323    1.000
    In3      In       0.11873    0.79609    0.30321    1.000
    O1       O        0.17720    0.82220    0.33020    1.000
    O2       O        0.20070    0.72360    0.35510    1.000
    O3       O        0.14700    0.72760    0.29810    1.000
    O4       O        0.27280    0.85240    0.29850    1.000
    O5       O        0.21830    0.85350    0.42280    1.000
    O6       O        0.21860    0.14790    0.57800    1.000
    O7       O        0.27600    0.79990    0.35490    1.000
    O8       O        0.35890    0.69510    0.73260    1.000
    N1       N        0.24260    0.75760    0.44250    1.000
    O9       O        0.30510    0.64000    0.73180    1.000
    O10      O        0.21900    0.90900    0.37060    1.000
    O11      O        0.22030    0.09070    0.62920    1.000
    C1       C        0.22180    0.89540    0.41150    1.000
    N2       N        0.26630    0.44600    0.22480    1.000
    C2       C        0.19020    0.66170    0.30670    1.000
    C3       C        0.17900    0.70800    0.32130    1.000
    C4       C        0.33890    0.81020    0.30760    1.000
    C5       C        0.29340    0.82320    0.32160    1.000
    C6       C        0.42670    0.78220    0.27680    1.000
    N3       N        0.55410    0.73320    0.22260    1.000
    C7       C        0.22610    0.07060    0.55200    1.000
    C8       C        0.22550    0.92850    0.44800    1.000
    C9       C        0.24580    0.70000    0.50180    1.000
    C10      C        0.29780    0.75730    0.50540    1.000
    C11      C        0.28070    0.77620    0.46310    1.000
    C12      C        0.36580    0.78210    0.33430    1.000
    C13      C        0.32760    0.67350    0.71260    1.000
    C14      C        0.21340    0.63010    0.33530    1.000
    C15      C        0.41080    0.77180    0.32020    1.000
    C16      C        0.22340    0.71890    0.46440    1.000
    C17      C        0.22290    0.10610    0.58900    1.000
    C18      C        0.29480    0.70510    0.57470    1.000
    C19      C        0.21600    0.57320    0.27860    1.000
    C20      C        0.28280    0.66140    0.64150    1.000
    C21      C        0.31760    0.68170    0.66600    1.000
    C22      C        0.22800    0.00540    0.47850    1.000
    C23      C        0.27460    0.72300    0.52830    1.000
    C24      C        0.33750    0.71660    0.64060    1.000
    C25      C        0.22920    0.02620    0.55720    1.000
    C26      C        0.22970    0.99320    0.52220    1.000
    C27      C        0.22730    0.97410    0.44270    1.000
    C28      C        0.22940    0.58930    0.31880    1.000
    C29      C        0.35810    0.82510    0.26810    1.000
    C30      C        0.17840    0.64650    0.26470    1.000
    C31      C        0.33210    0.72690    0.59610    1.000
    C32      C        0.27010    0.67210    0.59830    1.000
    C33      C        0.24190    0.52720    0.26090    1.000
    C34      C        0.18790    0.59950    0.25160    1.000
    C35      C        0.22500    0.08700    0.50870    1.000
    C36      C        0.40080    0.81090    0.25120    1.000
    C37      C        0.24200    0.04500    0.46810    1.000
    C38      C        0.22700    0.91090    0.49150    1.000
    C39      C        0.23000    0.94960    0.53110    1.000
    C40      C        0.46910    0.76180    0.25680    1.000
    C41      C        0.52100    0.71560    0.20830    1.000
    C42      C        0.51060    0.76620    0.27480    1.000
    C43      C        0.23090    0.48860    0.27890    1.000
    C44      C        0.55070    0.75700    0.25300    1.000
    C45      C        0.27300    0.49600    0.21200    1.000
    C46      C        0.25030    0.44660    0.25920    1.000
    C47      C        0.47080    0.73100    0.21470    1.000
    In4      In       0.70910    0.29089    0.88455    1.000
    In5      In       0.70388    0.38138    0.80323    1.000
    In6      In       0.61873    0.29609    0.80321    1.000
    O12      O        0.67720    0.32220    0.83020    1.000
    O13      O        0.70070    0.22360    0.85510    1.000
    O14      O        0.64700    0.22760    0.79810    1.000
    O15      O        0.77280    0.35240    0.79850    1.000
    O16      O        0.71830    0.35350    0.92280    1.000
    O17      O        0.71860    0.64790    0.07800    1.000
    O18      O        0.77600    0.29990    0.85490    1.000
    O19      O        0.85890    0.19510    0.23260    1.000
    N4       N        0.74260    0.25760    0.94250    1.000
    O20      O        0.80510    0.14000    0.23180    1.000
    O21      O        0.71900    0.40900    0.87060    1.000
    O22      O        0.72030    0.59070    0.12920    1.000
    C48      C        0.72180    0.39540    0.91150    1.000
    N5       N        0.76630    0.94600    0.72480    1.000
    C49      C        0.69020    0.16170    0.80670    1.000
    C50      C        0.67900    0.20800    0.82130    1.000
    C51      C        0.83890    0.31020    0.80760    1.000
    C52      C        0.79340    0.32320    0.82160    1.000
    C53      C        0.92670    0.28220    0.77680    1.000
    N6       N        0.05410    0.23320    0.72260    1.000
    C54      C        0.72610    0.57060    0.05200    1.000
    C55      C        0.72550    0.42850    0.94800    1.000
    C56      C        0.74580    0.20000    0.00180    1.000
    C57      C        0.79780    0.25730    0.00540    1.000
    C58      C        0.78070    0.27620    0.96310    1.000
    C59      C        0.86580    0.28210    0.83430    1.000
    C60      C        0.82760    0.17350    0.21260    1.000
    C61      C        0.71340    0.13010    0.83530    1.000
    C62      C        0.91080    0.27180    0.82020    1.000
    C63      C        0.72340    0.21890    0.96440    1.000
    C64      C        0.72290    0.60610    0.08900    1.000
    C65      C        0.79480    0.20510    0.07470    1.000
    C66      C        0.71600    0.07320    0.77860    1.000
    C67      C        0.78280    0.16140    0.14150    1.000
    C68      C        0.81760    0.18170    0.16600    1.000
    C69      C        0.72800    0.50540    0.97850    1.000
    C70      C        0.77460    0.22300    0.02830    1.000
    C71      C        0.83750    0.21660    0.14060    1.000
    C72      C        0.72920    0.52620    0.05720    1.000
    C73      C        0.72970    0.49320    0.02220    1.000
    C74      C        0.72730    0.47410    0.94270    1.000
    C75      C        0.72940    0.08930    0.81880    1.000
    C76      C        0.85810    0.32510    0.76810    1.000
    C77      C        0.67840    0.14650    0.76470    1.000
    C78      C        0.83210    0.22690    0.09610    1.000
    C79      C        0.77010    0.17210    0.09830    1.000
    C80      C        0.74190    0.02720    0.76090    1.000
    C81      C        0.68790    0.09950    0.75160    1.000
    C82      C        0.72500    0.58700    0.00870    1.000
    C83      C        0.90080    0.31090    0.75120    1.000
    C84      C        0.74200    0.54500    0.96810    1.000
    C85      C        0.72700    0.41090    0.99150    1.000
    C86      C        0.73000    0.44960    0.03110    1.000
    C87      C        0.96910    0.26180    0.75680    1.000
    C88      C        0.02100    0.21560    0.70830    1.000
    C89      C        0.01060    0.26620    0.77480    1.000
    C90      C        0.73090    0.98860    0.77890    1.000
    C91      C        0.05070    0.25700    0.75300    1.000
    C92      C        0.77300    0.99600    0.71200    1.000
    C93      C        0.75030    0.94660    0.75920    1.000
    C94      C        0.97080    0.23100    0.71470    1.000
    In7      In       0.79090    0.20911    0.38455    1.000
    In8      In       0.79612    0.11862    0.30323    1.000
    In9      In       0.88127    0.20391    0.30321    1.000
    O23      O        0.82280    0.17780    0.33020    1.000
    O24      O        0.79930    0.27640    0.35510    1.000
    O25      O        0.85300    0.27240    0.29810    1.000
    O26      O        0.72720    0.14760    0.29850    1.000
    O27      O        0.78170    0.14650    0.42280    1.000
    O28      O        0.78140    0.85210    0.57800    1.000
    O29      O        0.72400    0.20010    0.35490    1.000
    O30      O        0.64110    0.30490    0.73260    1.000
    N7       N        0.75740    0.24240    0.44250    1.000
    O31      O        0.69490    0.36000    0.73180    1.000
    O32      O        0.78100    0.09100    0.37060    1.000
    O33      O        0.77970    0.90930    0.62920    1.000
    C95      C        0.77820    0.10460    0.41150    1.000
    N8       N        0.73370    0.55400    0.22480    1.000
    C96      C        0.80980    0.33830    0.30670    1.000
    C97      C        0.82100    0.29200    0.32130    1.000
    C98      C        0.66110    0.18980    0.30760    1.000
    C99      C        0.70660    0.17680    0.32160    1.000
    C100     C        0.57330    0.21780    0.27680    1.000
    N9       N        0.44590    0.26680    0.22260    1.000
    C101     C        0.77390    0.92940    0.55200    1.000
    C102     C        0.77450    0.07150    0.44800    1.000
    C103     C        0.75420    0.30000    0.50180    1.000
    C104     C        0.70220    0.24270    0.50540    1.000
    C105     C        0.71930    0.22380    0.46310    1.000
    C106     C        0.63420    0.21790    0.33430    1.000
    C107     C        0.67240    0.32650    0.71260    1.000
    C108     C        0.78660    0.36990    0.33530    1.000
    C109     C        0.58920    0.22820    0.32020    1.000
    C110     C        0.77660    0.28110    0.46440    1.000
    C111     C        0.77710    0.89390    0.58900    1.000
    C112     C        0.70520    0.29490    0.57470    1.000
    C113     C        0.78400    0.42680    0.27860    1.000
    C114     C        0.71720    0.33860    0.64150    1.000
    C115     C        0.68240    0.31830    0.66600    1.000
    C116     C        0.77200    0.99460    0.47850    1.000
    C117     C        0.72540    0.27700    0.52830    1.000
    C118     C        0.66250    0.28340    0.64060    1.000
    C119     C        0.77080    0.97380    0.55720    1.000
    C120     C        0.77030    0.00680    0.52220    1.000
    C121     C        0.77270    0.02590    0.44270    1.000
    C122     C        0.77060    0.41070    0.31880    1.000
    C123     C        0.64190    0.17490    0.26810    1.000
    C124     C        0.82160    0.35350    0.26470    1.000
    C125     C        0.66790    0.27310    0.59610    1.000
    C126     C        0.72990    0.32790    0.59830    1.000
    C127     C        0.75810    0.47280    0.26090    1.000
    C128     C        0.81210    0.40050    0.25160    1.000
    C129     C        0.77500    0.91300    0.50870    1.000
    C130     C        0.59920    0.18910    0.25120    1.000
    C131     C        0.75800    0.95500    0.46810    1.000
    C132     C        0.77300    0.08910    0.49150    1.000
    C133     C        0.77000    0.05040    0.53110    1.000
    C134     C        0.53090    0.23820    0.25680    1.000
    C135     C        0.47900    0.28440    0.20830    1.000
    C136     C        0.48940    0.23380    0.27480    1.000
    C137     C        0.76910    0.51140    0.27890    1.000
    C138     C        0.44930    0.24300    0.25300    1.000
    C139     C        0.72700    0.50400    0.21200    1.000
    C140     C        0.74970    0.55340    0.25920    1.000
    C141     C        0.52920    0.26900    0.21470    1.000
    In10     In       0.29090    0.70911    0.88455    1.000
    In11     In       0.29612    0.61862    0.80323    1.000
    In12     In       0.38127    0.70391    0.80321    1.000
    O34      O        0.32280    0.67780    0.83020    1.000
    O35      O        0.29930    0.77640    0.85510    1.000
    O36      O        0.35300    0.77240    0.79810    1.000
    O37      O        0.22720    0.64760    0.79850    1.000
    O38      O        0.28170    0.64650    0.92280    1.000
    O39      O        0.28140    0.35210    0.07800    1.000
    O40      O        0.22400    0.70010    0.85490    1.000
    O41      O        0.14110    0.80490    0.23260    1.000
    N10      N        0.25740    0.74240    0.94250    1.000
    O42      O        0.19490    0.86000    0.23180    1.000
    O43      O        0.28100    0.59100    0.87060    1.000
    O44      O        0.27970    0.40930    0.12920    1.000
    C142     C        0.27820    0.60460    0.91150    1.000
    N11      N        0.23370    0.05400    0.72480    1.000
    C143     C        0.30980    0.83830    0.80670    1.000
    C144     C        0.32100    0.79200    0.82130    1.000
    C145     C        0.16110    0.68980    0.80760    1.000
    C146     C        0.20660    0.67680    0.82160    1.000
    C147     C        0.07330    0.71780    0.77680    1.000
    N12      N        0.94590    0.76680    0.72260    1.000
    C148     C        0.27390    0.42940    0.05200    1.000
    C149     C        0.27450    0.57150    0.94800    1.000
    C150     C        0.25420    0.80000    0.00180    1.000
    C151     C        0.20220    0.74270    0.00540    1.000
    C152     C        0.21930    0.72380    0.96310    1.000
    C153     C        0.13420    0.71790    0.83430    1.000
    C154     C        0.17240    0.82650    0.21260    1.000
    C155     C        0.28660    0.86990    0.83530    1.000
    C156     C        0.08920    0.72820    0.82020    1.000
    C157     C        0.27660    0.78110    0.96440    1.000
    C158     C        0.27710    0.39390    0.08900    1.000
    C159     C        0.20520    0.79490    0.07470    1.000
    C160     C        0.28400    0.92680    0.77860    1.000
    C161     C        0.21720    0.83860    0.14150    1.000
    C162     C        0.18240    0.81830    0.16600    1.000
    C163     C        0.27200    0.49460    0.97850    1.000
    C164     C        0.22540    0.77700    0.02830    1.000
    C165     C        0.16250    0.78340    0.14060    1.000
    C166     C        0.27080    0.47380    0.05720    1.000
    C167     C        0.27030    0.50680    0.02220    1.000
    C168     C        0.27270    0.52590    0.94270    1.000
    C169     C        0.27060    0.91070    0.81880    1.000
    C170     C        0.14190    0.67490    0.76810    1.000
    C171     C        0.32160    0.85350    0.76470    1.000
    C172     C        0.16790    0.77310    0.09610    1.000
    C173     C        0.22990    0.82790    0.09830    1.000
    C174     C        0.25810    0.97280    0.76090    1.000
    C175     C        0.31210    0.90050    0.75160    1.000
    C176     C        0.27500    0.41300    0.00870    1.000
    C177     C        0.09920    0.68910    0.75120    1.000
    C178     C        0.25800    0.45500    0.96810    1.000
    C179     C        0.27300    0.58910    0.99150    1.000
    C180     C        0.27000    0.55040    0.03110    1.000
    C181     C        0.03090    0.73820    0.75680    1.000
    C182     C        0.97900    0.78440    0.70830    1.000
    C183     C        0.98940    0.73380    0.77480    1.000
    C184     C        0.26910    0.01140    0.77890    1.000
    C185     C        0.94930    0.74300    0.75300    1.000
    C186     C        0.22700    0.00400    0.71200    1.000
    C187     C        0.24970    0.05340    0.75920    1.000
    C188     C        0.02920    0.76900    0.71470    1.000
    In13     In       0.79089    0.79090    0.61545    1.000
    In14     In       0.88138    0.79612    0.69677    1.000
    In15     In       0.79609    0.88127    0.69679    1.000
    O45      O        0.82220    0.82280    0.66980    1.000
    O46      O        0.72360    0.79930    0.64490    1.000
    O47      O        0.72760    0.85300    0.70190    1.000
    O48      O        0.85240    0.72720    0.70150    1.000
    O49      O        0.85350    0.78170    0.57720    1.000
    O50      O        0.14790    0.78140    0.42200    1.000
    O51      O        0.79990    0.72400    0.64510    1.000
    O52      O        0.69510    0.64110    0.26740    1.000
    N13      N        0.75760    0.75740    0.55750    1.000
    O53      O        0.64000    0.69490    0.26820    1.000
    O54      O        0.90900    0.78100    0.62940    1.000
    O55      O        0.09070    0.77970    0.37080    1.000
    C189     C        0.89540    0.77820    0.58850    1.000
    N14      N        0.44600    0.73370    0.77520    1.000
    C190     C        0.66170    0.80980    0.69330    1.000
    C191     C        0.70800    0.82100    0.67870    1.000
    C192     C        0.81020    0.66110    0.69240    1.000
    C193     C        0.82320    0.70660    0.67840    1.000
    C194     C        0.78220    0.57330    0.72320    1.000
    N15      N        0.73320    0.44590    0.77740    1.000
    C195     C        0.07060    0.77390    0.44800    1.000
    C196     C        0.92850    0.77450    0.55200    1.000
    C197     C        0.70000    0.75420    0.49820    1.000
    C198     C        0.75730    0.70220    0.49460    1.000
    C199     C        0.77620    0.71930    0.53690    1.000
    C200     C        0.78210    0.63420    0.66570    1.000
    C201     C        0.67350    0.67240    0.28740    1.000
    C202     C        0.63010    0.78660    0.66470    1.000
    C203     C        0.77180    0.58920    0.67980    1.000
    C204     C        0.71890    0.77660    0.53560    1.000
    C205     C        0.10610    0.77710    0.41100    1.000
    C206     C        0.70510    0.70520    0.42530    1.000
    C207     C        0.57320    0.78400    0.72140    1.000
    C208     C        0.66140    0.71720    0.35850    1.000
    C209     C        0.68170    0.68240    0.33400    1.000
    C210     C        0.00540    0.77200    0.52150    1.000
    C211     C        0.72300    0.72540    0.47170    1.000
    C212     C        0.71660    0.66250    0.35940    1.000
    C213     C        0.02620    0.77080    0.44280    1.000
    C214     C        0.99320    0.77030    0.47780    1.000
    C215     C        0.97410    0.77270    0.55730    1.000
    C216     C        0.58930    0.77060    0.68120    1.000
    C217     C        0.82510    0.64190    0.73190    1.000
    C218     C        0.64650    0.82160    0.73530    1.000
    C219     C        0.72690    0.66790    0.40390    1.000
    C220     C        0.67210    0.72990    0.40170    1.000
    C221     C        0.52720    0.75810    0.73910    1.000
    C222     C        0.59950    0.81210    0.74840    1.000
    C223     C        0.08700    0.77500    0.49130    1.000
    C224     C        0.81090    0.59920    0.74880    1.000
    C225     C        0.04500    0.75800    0.53190    1.000
    C226     C        0.91090    0.77300    0.50850    1.000
    C227     C        0.94960    0.77000    0.46890    1.000
    C228     C        0.76180    0.53090    0.74320    1.000
    C229     C        0.71560    0.47900    0.79170    1.000
    C230     C        0.76620    0.48940    0.72520    1.000
    C231     C        0.48860    0.76910    0.72110    1.000
    C232     C        0.75700    0.44930    0.74700    1.000
    C233     C        0.49600    0.72700    0.78800    1.000
    C234     C        0.44660    0.74970    0.74080    1.000
    C235     C        0.73100    0.52920    0.78530    1.000
    In16     In       0.29089    0.29090    0.11545    1.000
    In17     In       0.38138    0.29612    0.19677    1.000
    In18     In       0.29609    0.38127    0.19679    1.000
    O56      O        0.32220    0.32280    0.16980    1.000
    O57      O        0.22360    0.29930    0.14490    1.000
    O58      O        0.22760    0.35300    0.20190    1.000
    O59      O        0.35240    0.22720    0.20150    1.000
    O60      O        0.35350    0.28170    0.07720    1.000
    O61      O        0.64790    0.28140    0.92200    1.000
    O62      O        0.29990    0.22400    0.14510    1.000
    O63      O        0.19510    0.14110    0.76740    1.000
    N16      N        0.25760    0.25740    0.05750    1.000
    O64      O        0.14000    0.19490    0.76820    1.000
    O65      O        0.40900    0.28100    0.12940    1.000
    O66      O        0.59070    0.27970    0.87080    1.000
    C236     C        0.39540    0.27820    0.08850    1.000
    N17      N        0.94600    0.23370    0.27520    1.000
    C237     C        0.16170    0.30980    0.19330    1.000
    C238     C        0.20800    0.32100    0.17870    1.000
    C239     C        0.31020    0.16110    0.19240    1.000
    C240     C        0.32320    0.20660    0.17840    1.000
    C241     C        0.28220    0.07330    0.22320    1.000
    N18      N        0.23320    0.94590    0.27740    1.000
    C242     C        0.57060    0.27390    0.94800    1.000
    C243     C        0.42850    0.27450    0.05200    1.000
    C244     C        0.20000    0.25420    0.99820    1.000
    C245     C        0.25730    0.20220    0.99460    1.000
    C246     C        0.27620    0.21930    0.03690    1.000
    C247     C        0.28210    0.13420    0.16570    1.000
    C248     C        0.17350    0.17240    0.78740    1.000
    C249     C        0.13010    0.28660    0.16470    1.000
    C250     C        0.27180    0.08920    0.17980    1.000
    C251     C        0.21890    0.27660    0.03560    1.000
    C252     C        0.60610    0.27710    0.91100    1.000
    C253     C        0.20510    0.20520    0.92530    1.000
    C254     C        0.07320    0.28400    0.22140    1.000
    C255     C        0.16140    0.21720    0.85850    1.000
    C256     C        0.18170    0.18240    0.83400    1.000
    C257     C        0.50540    0.27200    0.02150    1.000
    C258     C        0.22300    0.22540    0.97170    1.000
    C259     C        0.21660    0.16250    0.85940    1.000
    C260     C        0.52620    0.27080    0.94280    1.000
    C261     C        0.49320    0.27030    0.97780    1.000
    C262     C        0.47410    0.27270    0.05730    1.000
    C263     C        0.08930    0.27060    0.18120    1.000
    C264     C        0.32510    0.14190    0.23190    1.000
    C265     C        0.14650    0.32160    0.23530    1.000
    C266     C        0.22690    0.16790    0.90390    1.000
    C267     C        0.17210    0.22990    0.90170    1.000
    C268     C        0.02720    0.25810    0.23910    1.000
    C269     C        0.09950    0.31210    0.24840    1.000
    C270     C        0.58700    0.27500    0.99130    1.000
    C271     C        0.31090    0.09920    0.24880    1.000
    C272     C        0.54500    0.25800    0.03190    1.000
    C273     C        0.41090    0.27300    0.00850    1.000
    C274     C        0.44960    0.27000    0.96890    1.000
    C275     C        0.26180    0.03090    0.24320    1.000
    C276     C        0.21560    0.97900    0.29170    1.000
    C277     C        0.26620    0.98940    0.22520    1.000
    C278     C        0.98860    0.26910    0.22110    1.000
    C279     C        0.25700    0.94930    0.24700    1.000
    C280     C        0.99600    0.22700    0.28800    1.000
    C281     C        0.94660    0.24970    0.24080    1.000
    C282     C        0.23100    0.02920    0.28530    1.000
    In19     In       0.20911    0.20910    0.61545    1.000
    In20     In       0.11862    0.20388    0.69677    1.000
    In21     In       0.20391    0.11873    0.69679    1.000
    O67      O        0.17780    0.17720    0.66980    1.000
    O68      O        0.27640    0.20070    0.64490    1.000
    O69      O        0.27240    0.14700    0.70190    1.000
    O70      O        0.14760    0.27280    0.70150    1.000
    O71      O        0.14650    0.21830    0.57720    1.000
    O72      O        0.85210    0.21860    0.42200    1.000
    O73      O        0.20010    0.27600    0.64510    1.000
    O74      O        0.30490    0.35890    0.26740    1.000
    N19      N        0.24240    0.24260    0.55750    1.000
    O75      O        0.36000    0.30510    0.26820    1.000
    O76      O        0.09100    0.21900    0.62940    1.000
    O77      O        0.90930    0.22030    0.37080    1.000
    C283     C        0.10460    0.22180    0.58850    1.000
    N20      N        0.55400    0.26630    0.77520    1.000
    C284     C        0.33830    0.19020    0.69330    1.000
    C285     C        0.29200    0.17900    0.67870    1.000
    C286     C        0.18980    0.33890    0.69240    1.000
    C287     C        0.17680    0.29340    0.67840    1.000
    C288     C        0.21780    0.42670    0.72320    1.000
    N21      N        0.26680    0.55410    0.77740    1.000
    C289     C        0.92940    0.22610    0.44800    1.000
    C290     C        0.07150    0.22550    0.55200    1.000
    C291     C        0.30000    0.24580    0.49820    1.000
    C292     C        0.24270    0.29780    0.49460    1.000
    C293     C        0.22380    0.28070    0.53690    1.000
    C294     C        0.21790    0.36580    0.66570    1.000
    C295     C        0.32650    0.32760    0.28740    1.000
    C296     C        0.36990    0.21340    0.66470    1.000
    C297     C        0.22820    0.41080    0.67980    1.000
    C298     C        0.28110    0.22340    0.53560    1.000
    C299     C        0.89390    0.22290    0.41100    1.000
    C300     C        0.29490    0.29480    0.42530    1.000
    C301     C        0.42680    0.21600    0.72140    1.000
    C302     C        0.33860    0.28280    0.35850    1.000
    C303     C        0.31830    0.31760    0.33400    1.000
    C304     C        0.99460    0.22800    0.52150    1.000
    C305     C        0.27700    0.27460    0.47170    1.000
    C306     C        0.28340    0.33750    0.35940    1.000
    C307     C        0.97380    0.22920    0.44280    1.000
    C308     C        0.00680    0.22970    0.47780    1.000
    C309     C        0.02590    0.22730    0.55730    1.000
    C310     C        0.41070    0.22940    0.68120    1.000
    C311     C        0.17490    0.35810    0.73190    1.000
    C312     C        0.35350    0.17840    0.73530    1.000
    C313     C        0.27310    0.33210    0.40390    1.000
    C314     C        0.32790    0.27010    0.40170    1.000
    C315     C        0.47280    0.24190    0.73910    1.000
    C316     C        0.40050    0.18790    0.74840    1.000
    C317     C        0.91300    0.22500    0.49130    1.000
    C318     C        0.18910    0.40080    0.74880    1.000
    C319     C        0.95500    0.24200    0.53190    1.000
    C320     C        0.08910    0.22700    0.50850    1.000
    C321     C        0.05040    0.23000    0.46890    1.000
    C322     C        0.23820    0.46910    0.74320    1.000
    C323     C        0.28440    0.52100    0.79170    1.000
    C324     C        0.23380    0.51060    0.72520    1.000
    C325     C        0.51140    0.23090    0.72110    1.000
    C326     C        0.24300    0.55070    0.74700    1.000
    C327     C        0.50400    0.27300    0.78800    1.000
    C328     C        0.55340    0.25030    0.74080    1.000
    C329     C        0.26900    0.47080    0.78530    1.000
    In22     In       0.70911    0.70910    0.11545    1.000
    In23     In       0.61862    0.70388    0.19677    1.000
    In24     In       0.70391    0.61873    0.19679    1.000
    O78      O        0.67780    0.67720    0.16980    1.000
    O79      O        0.77640    0.70070    0.14490    1.000
    O80      O        0.77240    0.64700    0.20190    1.000
    O81      O        0.64760    0.77280    0.20150    1.000
    O82      O        0.64650    0.71830    0.07720    1.000
    O83      O        0.35210    0.71860    0.92200    1.000
    O84      O        0.70010    0.77600    0.14510    1.000
    O85      O        0.80490    0.85890    0.76740    1.000
    N22      N        0.74240    0.74260    0.05750    1.000
    O86      O        0.86000    0.80510    0.76820    1.000
    O87      O        0.59100    0.71900    0.12940    1.000
    O88      O        0.40930    0.72030    0.87080    1.000
    C330     C        0.60460    0.72180    0.08850    1.000
    N23      N        0.05400    0.76630    0.27520    1.000
    C331     C        0.83830    0.69020    0.19330    1.000
    C332     C        0.79200    0.67900    0.17870    1.000
    C333     C        0.68980    0.83890    0.19240    1.000
    C334     C        0.67680    0.79340    0.17840    1.000
    C335     C        0.71780    0.92670    0.22320    1.000
    N24      N        0.76680    0.05410    0.27740    1.000
    C336     C        0.42940    0.72610    0.94800    1.000
    C337     C        0.57150    0.72550    0.05200    1.000
    C338     C        0.80000    0.74580    0.99820    1.000
    C339     C        0.74270    0.79780    0.99460    1.000
    C340     C        0.72380    0.78070    0.03690    1.000
    C341     C        0.71790    0.86580    0.16570    1.000
    C342     C        0.82650    0.82760    0.78740    1.000
    C343     C        0.86990    0.71340    0.16470    1.000
    C344     C        0.72820    0.91080    0.17980    1.000
    C345     C        0.78110    0.72340    0.03560    1.000
    C346     C        0.39390    0.72290    0.91100    1.000
    C347     C        0.79490    0.79480    0.92530    1.000
    C348     C        0.92680    0.71600    0.22140    1.000
    C349     C        0.83860    0.78280    0.85850    1.000
    C350     C        0.81830    0.81760    0.83400    1.000
    C351     C        0.49460    0.72800    0.02150    1.000
    C352     C        0.77700    0.77460    0.97170    1.000
    C353     C        0.78340    0.83750    0.85940    1.000
    C354     C        0.47380    0.72920    0.94280    1.000
    C355     C        0.50680    0.72970    0.97780    1.000
    C356     C        0.52590    0.72730    0.05730    1.000
    C357     C        0.91070    0.72940    0.18120    1.000
    C358     C        0.67490    0.85810    0.23190    1.000
    C359     C        0.85350    0.67840    0.23530    1.000
    C360     C        0.77310    0.83210    0.90390    1.000
    C361     C        0.82790    0.77010    0.90170    1.000
    C362     C        0.97280    0.74190    0.23910    1.000
    C363     C        0.90050    0.68790    0.24840    1.000
    C364     C        0.41300    0.72500    0.99130    1.000
    C365     C        0.68910    0.90080    0.24880    1.000
    C366     C        0.45500    0.74200    0.03190    1.000
    C367     C        0.58910    0.72700    0.00850    1.000
    C368     C        0.55040    0.73000    0.96890    1.000
    C369     C        0.73820    0.96910    0.24320    1.000
    C370     C        0.78440    0.02100    0.29170    1.000
    C371     C        0.73380    0.01060    0.22520    1.000
    C372     C        0.01140    0.73090    0.22110    1.000
    C373     C        0.74300    0.05070    0.24700    1.000
    C374     C        0.00400    0.77300    0.28800    1.000
    C375     C        0.05340    0.75030    0.24080    1.000
    C376     C        0.76900    0.97080    0.28530    1.000
