# CIF file generated by openbabel 3.1.0, see https://openbabel.org
data_I
_chemical_name_common 'image0'
_cell_length_a 9.2522
_cell_length_b 9.2556
_cell_length_c 9.4781
_cell_angle_alpha 90
_cell_angle_beta 118.419
_cell_angle_gamma 90
_space_group_name_H-M_alt 'P 1'
_space_group_name_Hall 'P 1'
loop_
    _symmetry_equiv_pos_as_xyz
    x,y,z
loop_
    _atom_site_label
    _atom_site_type_symbol
    _atom_site_fract_x
    _atom_site_fract_y
    _atom_site_fract_z
    _atom_site_occupancy
    Zn1      Zn       0.27889    0.62679    0.86336    1.000
    N1       N        0.10530    0.62680    0.93620    1.000
    H1       H        0.09750    0.71820    0.97010    1.000
    H2       H        0.00530    0.60400    0.85040    1.000
    O1       O        0.16740    0.67770    0.63690    1.000
    N2       N        0.63510    0.92860    0.13190    1.000
    C1       C        0.11720    0.80530    0.58710    1.000
    O2       O        0.16280    0.91420    0.67010    1.000
    C2       C        0.98250    0.81440    0.41220    1.000
    H3       H        0.00230    0.90150    0.36130    1.000
    C3       C        0.50610    0.87810    0.99860    1.000
    H4       H        0.45730    0.92670    0.89820    1.000
    C4       C        0.67360    0.82620    0.24840    1.000
    N3       N        0.97690    0.68810    0.32040    1.000
    H5       H        0.92200    0.61250    0.32550    1.000
    N4       N        0.45450    0.74910    0.02530    1.000
    C5       C        0.56470    0.71530    0.18510    1.000
    H6       H        0.56370    0.62960    0.23990    1.000
    C6       C        0.14170    0.52370    0.06710    1.000
    H7       H        0.25640    0.53830    0.15220    1.000
    H8       H        0.13290    0.42420    0.02540    1.000
    C7       C        0.81710    0.83230    0.41280    1.000
    H9       H        0.80610    0.75490    0.47920    1.000
    H10      H        0.81650    0.92610    0.46260    1.000
    C8       C        0.04790    0.67880    0.23020    1.000
    C9       C        0.02670    0.53890    0.14060    1.000
    H11      H        0.91160    0.53200    0.05400    1.000
    H12      H        0.04650    0.45730    0.21520    1.000
    O3       O        0.12600    0.78010    0.21120    1.000
    Zn2      Zn       0.72111    0.12679    0.13664    1.000
    N5       N        0.89470    0.12680    0.06380    1.000
    H13      H        0.90250    0.21820    0.02990    1.000
    H14      H        0.99470    0.10400    0.14960    1.000
    O4       O        0.83260    0.17770    0.36310    1.000
    N6       N        0.36490    0.42860    0.86810    1.000
    C10      C        0.88280    0.30530    0.41290    1.000
    O5       O        0.83720    0.41420    0.32990    1.000
    C11      C        0.01750    0.31440    0.58780    1.000
    H15      H        0.99770    0.40150    0.63870    1.000
    C12      C        0.49390    0.37810    0.00140    1.000
    H16      H        0.54270    0.42670    0.10180    1.000
    C13      C        0.32640    0.32620    0.75160    1.000
    N7       N        0.02310    0.18810    0.67960    1.000
    H17      H        0.07800    0.11250    0.67450    1.000
    N8       N        0.54550    0.24910    0.97470    1.000
    C14      C        0.43530    0.21530    0.81490    1.000
    H18      H        0.43630    0.12960    0.76010    1.000
    C15      C        0.85830    0.02370    0.93290    1.000
    H19      H        0.74360    0.03830    0.84780    1.000
    H20      H        0.86710    0.92420    0.97460    1.000
    C16      C        0.18290    0.33230    0.58720    1.000
    H21      H        0.19390    0.25490    0.52080    1.000
    H22      H        0.18350    0.42610    0.53740    1.000
    C17      C        0.95210    0.17880    0.76980    1.000
    C18      C        0.97330    0.03890    0.85940    1.000
    H23      H        0.08840    0.03200    0.94600    1.000
    H24      H        0.95350    0.95730    0.78480    1.000
    O6       O        0.87400    0.28010    0.78880    1.000
