# CIF file generated by openbabel 3.1.0, see https://openbabel.org
data_I
_chemical_name_common 'ja512973b_si_005'
_cell_length_a 28.9202
_cell_length_b 28.9202
_cell_length_c 28.9202
_cell_angle_alpha 90
_cell_angle_beta 90
_cell_angle_gamma 90
_space_group_name_H-M_alt 'P 1'
_space_group_name_Hall 'P 1'
loop_
    _symmetry_equiv_pos_as_xyz
    x,y,z
loop_
    _atom_site_label
    _atom_site_type_symbol
    _atom_site_fract_x
    _atom_site_fract_y
    _atom_site_fract_z
    _atom_site_occupancy
    C1       C        0.52371    0.02081    0.35499    1.000
    C2       C        0.47630    0.02030    0.35504    1.000
    C3       C        0.46248    0.00627    0.40167    1.000
    N4       N        0.50033    0.99848    0.42804    1.000
    C5       C        0.53794    0.00698    0.40157    1.000
    X6       C        0.41647    0.99820    0.41579    1.000
    C7       C        0.40365    0.99055    0.46240    1.000
    C8       C        0.36098    0.97382    0.47651    1.000
    C9       C        0.36102    0.97429    0.52406    1.000
    C10      C        0.40374    0.99123    0.53776    1.000
    N11      N        0.42952    0.00111    0.49996    1.000
    X12      C        0.41673    0.99959    0.58418    1.000
    C13      C        0.46291    0.00701    0.59811    1.000
    C14      C        0.47713    0.02086    0.64468    1.000
    C15      C        0.52454    0.02038    0.64463    1.000
    C16      C        0.53837    0.00633    0.59800    1.000
    N17      N        0.50053    0.99852    0.57164    1.000
    X18      C        0.58439    0.99828    0.58389    1.000
    C19      C        0.59721    0.99061    0.53729    1.000
    C20      C        0.63989    0.97390    0.52318    1.000
    C21      C        0.63985    0.97435    0.47563    1.000
    C22      C        0.59712    0.99126    0.46193    1.000
    N23      N        0.57134    0.00114    0.49972    1.000
    X24      C        0.58413    0.99959    0.41550    1.000
    H25      H        0.54552    0.03001    0.32601    1.000
    H26      H        0.45423    0.02905    0.32613    1.000
    H27      H        0.54009    0.01889    0.49988    1.000
    H28      H        0.33258    0.96273    0.45482    1.000
    H29      H        0.33268    0.96362    0.54604    1.000
    H30      H        0.45533    0.03006    0.67366    1.000
    H31      H        0.54661    0.02915    0.67354    1.000
    H32      H        0.66820    0.96368    0.45366    1.000
    H33      H        0.46076    0.01887    0.49979    1.000
    H34      H        0.66830    0.96283    0.54488    1.000
    C35      C        0.35559    0.51981    0.02422    1.000
    C36      C        0.35564    0.47240    0.02374    1.000
    C37      C        0.40227    0.45858    0.00969    1.000
    N38      N        0.42864    0.49642    0.00188    1.000
    C39      C        0.40216    0.53404    0.01037    1.000
    X40      C        0.41638    0.41256    0.00164    1.000
    C41      C        0.46299    0.39974    0.99398    1.000
    C42      C        0.47710    0.35706    0.97726    1.000
    C43      C        0.52465    0.35710    0.97772    1.000
    C44      C        0.53835    0.39983    0.99463    1.000
    N45      N        0.50055    0.42561    0.00451    1.000
    X46      C        0.58478    0.41282    0.00296    1.000
    C47      C        0.59871    0.45901    0.01036    1.000
    C48      C        0.64528    0.47324    0.02419    1.000
    C49      C        0.64523    0.52065    0.02368    1.000
    C50      C        0.59860    0.53447    0.00964    1.000
    N51      N        0.57223    0.49662    0.00185    1.000
    X52      C        0.58448    0.58048    0.00157    1.000
    C53      C        0.53788    0.59330    0.99392    1.000
    C54      C        0.52376    0.63597    0.97719    1.000
    C55      C        0.47621    0.63593    0.97766    1.000
    C56      C        0.46252    0.59321    0.99460    1.000
    N57      N        0.50031    0.56743    0.00447    1.000
    X58      C        0.41609    0.58022    0.00295    1.000
    H59      H        0.32662    0.54162    0.03342    1.000
    H60      H        0.32673    0.45034    0.03251    1.000
    H61      H        0.50048    0.53619    0.02224    1.000
    H62      H        0.45540    0.32865    0.96619    1.000
    H63      H        0.54662    0.32875    0.96705    1.000
    H64      H        0.67426    0.45144    0.03338    1.000
    H65      H        0.67414    0.54272    0.03242    1.000
    H66      H        0.45423    0.66427    0.96698    1.000
    H67      H        0.50040    0.45686    0.02226    1.000
    H68      H        0.54546    0.66437    0.96609    1.000
    C69      C        0.97645    0.64131    0.47572    1.000
    C70      C        0.97596    0.64136    0.52313    1.000
    C71      C        0.98981    0.59479    0.53736    1.000
    N72      N        0.99830    0.56831    0.49974    1.000
    C73      C        0.99049    0.59468    0.46190    1.000
    X74      C        0.99723    0.58086    0.58354    1.000
    C75      C        0.00559    0.53444    0.59653    1.000
    C76      C        0.02253    0.52074    0.63925    1.000
    C77      C        0.02300    0.47320    0.63929    1.000
    C78      C        0.00627    0.45908    0.59662    1.000
    N79      N        0.99571    0.49664    0.57075    1.000
    X80      C        0.99861    0.41247    0.58380    1.000
    C81      C        0.99055    0.39835    0.53779    1.000
    C82      C        0.97652    0.35172    0.52398    1.000
    C83      C        0.97601    0.35167    0.47657    1.000
    C84      C        0.98984    0.39824    0.46234    1.000
    N85      N        0.99833    0.42472    0.49995    1.000
    X86      C        0.99723    0.41217    0.41615    1.000
    C87      C        0.00556    0.45860    0.40315    1.000
    C88      C        0.02248    0.47230    0.36043    1.000
    C89      C        0.02293    0.51985    0.36039    1.000
    C90      C        0.00621    0.53396    0.40306    1.000
    N91      N        0.99568    0.49639    0.42894    1.000
    X92      C        0.99855    0.58056    0.41588    1.000
    H93      H        0.96768    0.67022    0.45365    1.000
    H94      H        0.96676    0.67034    0.54494    1.000
    H95      H        0.97793    0.49655    0.46018    1.000
    H96      H        0.03321    0.54272    0.66759    1.000
    H97      H        0.03409    0.45150    0.66770    1.000
    H98      H        0.96777    0.32280    0.54605    1.000
    H99      H        0.96681    0.32269    0.45477    1.000
    H100     H        0.03401    0.54155    0.33198    1.000
    H101     H        0.97795    0.49647    0.53952    1.000
    H102     H        0.03316    0.45032    0.33208    1.000
    O103     O        0.93785    0.99502    0.88082    1.000
    O104     O        0.93778    0.99809    0.11881    1.000
    O105     O        0.88141    0.93394    0.99821    1.000
    O106     O        0.88146    0.05917    0.00142    1.000
    O107     O        0.93782    0.11552    0.00145    1.000
    O108     O        0.93773    0.87755    0.99821    1.000
    O109     O        0.88143    0.99812    0.06245    1.000
    O110     O        0.88146    0.99500    0.93714    1.000
    Zr111    Zr       0.91906    0.99654    0.99981    1.000
    O112     O        0.95848    0.03847    0.04180    1.000
    O113     O        0.95847    0.95458    0.95784    1.000
    X114     C        0.89500    0.99428    0.89430    1.000
    X115     C        0.89494    0.99887    0.10530    1.000
    X116     C        0.89489    0.89109    0.99746    1.000
    X117     C        0.89498    0.10201    0.00220    1.000
    H118     H        0.93888    0.93502    0.06131    1.000
    O119     O        0.95863    0.95475    0.04158    1.000
    H120     H        0.93897    0.05807    0.93834    1.000
    O121     O        0.95869    0.03832    0.95808    1.000
    O122     O        0.06301    0.99488    0.11886    1.000
    O123     O        0.06309    0.99814    0.88088    1.000
    O124     O        0.00193    0.87750    0.06242    1.000
    O125     O        0.99886    0.11548    0.06250    1.000
    O126     O        0.00206    0.11554    0.93727    1.000
    O127     O        0.99881    0.87755    0.93718    1.000
    O128     O        0.11940    0.93386    0.00145    1.000
    O129     O        0.11945    0.05910    0.99834    1.000
    O130     O        0.06304    0.87751    0.00140    1.000
    O131     O        0.06313    0.11548    0.99833    1.000
    O132     O        0.00195    0.93381    0.11881    1.000
    O133     O        0.99886    0.93392    0.88083    1.000
    O134     O        0.00206    0.05922    0.88088    1.000
    O135     O        0.99882    0.05912    0.11885    1.000
    O136     O        0.11940    0.99488    0.06254    1.000
    O137     O        0.11944    0.99808    0.93724    1.000
    Zr138    Zr       0.00041    0.99648    0.08121    1.000
    Zr139    Zr       0.00046    0.99655    0.91847    1.000
    Zr140    Zr       0.00040    0.91515    0.99981    1.000
    Zr141    Zr       0.00046    0.07789    0.99987    1.000
    Zr142    Zr       0.08180    0.99649    0.99987    1.000
    O143     O        0.04243    0.03848    0.95791    1.000
    O144     O        0.04237    0.95452    0.04181    1.000
    X145     C        0.10586    0.99413    0.10538    1.000
    X146     C        0.10593    0.99887    0.89439    1.000
    X147     C        0.00267    0.89097    0.10527    1.000
    X148     C        0.99808    0.10197    0.10534    1.000
    X149     C        0.00281    0.10206    0.89441    1.000
    X150     C        0.99808    0.89107    0.89434    1.000
    X151     C        0.10588    0.89102    0.00219    1.000
    X152     C        0.10597    0.10195    0.99760    1.000
    H153     H        0.06193    0.93502    0.93834    1.000
    O154     O        0.04220    0.95475    0.95808    1.000
    H155     H        0.06193    0.05798    0.06139    1.000
    O156     O        0.04220    0.03826    0.04164    1.000
    C157     C        0.31087    0.99466    0.31113    1.000
    C158     C        0.30974    0.02855    0.34574    1.000
    C159     C        0.34405    0.02966    0.37983    1.000
    X160     C        0.37989    0.99688    0.37966    1.000
    C161     C        0.38077    0.96285    0.34499    1.000
    C162     C        0.34646    0.96180    0.31089    1.000
    C163     C        0.27567    0.99375    0.27582    1.000
    C164     C        0.24622    0.99315    0.24623    1.000
    C165     C        0.21103    0.99269    0.21089    1.000
    C166     C        0.22349    0.99256    0.16412    1.000
    C167     C        0.18938    0.99276    0.12980    1.000
    X168     C        0.14215    0.99311    0.14177    1.000
    C169     C        0.13003    0.99295    0.18896    1.000
    C170     C        0.16422    0.99276    0.22319    1.000
    H171     H        0.28240    0.05416    0.34630    1.000
    H172     H        0.34284    0.05616    0.40628    1.000
    H173     H        0.40804    0.93719    0.34442    1.000
    H174     H        0.34771    0.93540    0.28433    1.000
    H175     H        0.25961    0.99250    0.15416    1.000
    H176     H        0.20008    0.99282    0.09392    1.000
    H177     H        0.09411    0.99318    0.19954    1.000
    H178     H        0.15413    0.99286    0.25927    1.000
    C179     C        0.68975    0.00006    0.31084    1.000
    C180     C        0.69022    0.03332    0.34606    1.000
    C181     C        0.65590    0.03310    0.38016    1.000
    X182     C        0.62072    0.99961    0.37936    1.000
    C183     C        0.62054    0.96619    0.34410    1.000
    C184     C        0.65485    0.96647    0.31000    1.000
    C185     C        0.72501    0.00041    0.27558    1.000
    C186     C        0.75450    0.00063    0.24602    1.000
    C187     C        0.78971    0.00075    0.21071    1.000
    C188     C        0.83651    0.00083    0.22305    1.000
    C189     C        0.87072    0.00045    0.18885    1.000
    X190     C        0.85863    0.99996    0.14165    1.000
    C191     C        0.81141    0.00012    0.12965    1.000
    C192     C        0.77728    0.00049    0.16394    1.000
    H193     H        0.71704    0.05945    0.34710    1.000
    H194     H        0.65658    0.05912    0.40710    1.000
    H195     H        0.59381    0.93998    0.34307    1.000
    H196     H        0.65416    0.94052    0.28298    1.000
    H197     H        0.84657    0.00105    0.25914    1.000
    H198     H        0.90663    0.00039    0.19946    1.000
    H199     H        0.80073    0.99978    0.09376    1.000
    H200     H        0.74117    0.00044    0.15396    1.000
    C201     C        0.68998    0.99481    0.68855    1.000
    C202     C        0.65441    0.96193    0.68881    1.000
    C203     C        0.62010    0.96297    0.65471    1.000
    X204     C        0.62097    0.99698    0.62003    1.000
    C205     C        0.65679    0.02978    0.61984    1.000
    C206     C        0.69111    0.02869    0.65394    1.000
    C207     C        0.72519    0.99392    0.72387    1.000
    C208     C        0.75465    0.99333    0.75345    1.000
    C209     C        0.78984    0.99287    0.78879    1.000
    C210     C        0.77737    0.99275    0.83556    1.000
    C211     C        0.81148    0.99294    0.86988    1.000
    X212     C        0.85871    0.99328    0.85792    1.000
    C213     C        0.87084    0.99313    0.81072    1.000
    C214     C        0.83664    0.99295    0.77650    1.000
    H215     H        0.65317    0.93555    0.71537    1.000
    H216     H        0.59284    0.93729    0.65528    1.000
    H217     H        0.65800    0.05627    0.59339    1.000
    H218     H        0.71844    0.05431    0.65337    1.000
    H219     H        0.74126    0.99268    0.84552    1.000
    H220     H        0.80078    0.99300    0.90576    1.000
    H221     H        0.90675    0.99335    0.80014    1.000
    H222     H        0.84673    0.99304    0.74042    1.000
    C223     C        0.31111    0.00005    0.68884    1.000
    C224     C        0.34602    0.96647    0.68970    1.000
    C225     C        0.38034    0.96620    0.65559    1.000
    X226     C        0.38014    0.99960    0.62032    1.000
    C227     C        0.34495    0.03308    0.61950    1.000
    C228     C        0.31063    0.03329    0.65361    1.000
    C229     C        0.27585    0.00040    0.72411    1.000
    C230     C        0.24637    0.00062    0.75366    1.000
    C231     C        0.21115    0.00073    0.78897    1.000
    C232     C        0.22359    0.00043    0.83574    1.000
    C233     C        0.18946    0.00006    0.87004    1.000
    X234     C        0.14224    0.99995    0.85804    1.000
    C235     C        0.13014    0.00050    0.81084    1.000
    C236     C        0.16436    0.00087    0.77664    1.000
    H237     H        0.34673    0.94054    0.71672    1.000
    H238     H        0.40708    0.94000    0.65663    1.000
    H239     H        0.34426    0.05908    0.59256    1.000
    H240     H        0.28380    0.05941    0.65255    1.000
    H241     H        0.25970    0.00033    0.84572    1.000
    H242     H        0.20014    0.99968    0.90592    1.000
    H243     H        0.09424    0.00048    0.80023    1.000
    H244     H        0.15429    0.00113    0.74055    1.000
    C245     C        0.31172    0.30696    0.99816    1.000
    C246     C        0.31147    0.34254    0.96529    1.000
    C247     C        0.34557    0.37685    0.96633    1.000
    X248     C        0.38025    0.37598    0.00034    1.000
    C249     C        0.38043    0.34015    0.03314    1.000
    C250     C        0.34634    0.30584    0.03205    1.000
    C251     C        0.27641    0.27176    0.99727    1.000
    C252     C        0.24682    0.24230    0.99668    1.000
    C253     C        0.21149    0.20711    0.99621    1.000
    C254     C        0.22378    0.16030    0.99628    1.000
    C255     C        0.18955    0.12611    0.99646    1.000
    X256     C        0.14236    0.13824    0.99661    1.000
    C257     C        0.13040    0.18547    0.99627    1.000
    C258     C        0.16472    0.21958    0.99609    1.000
    H259     H        0.28491    0.34378    0.93890    1.000
    H260     H        0.34499    0.40412    0.94065    1.000
    H261     H        0.40689    0.33895    0.05962    1.000
    H262     H        0.34691    0.27851    0.05766    1.000
    H263     H        0.25986    0.15021    0.99638    1.000
    H264     H        0.20014    0.09020    0.99668    1.000
    H265     H        0.09452    0.19617    0.99633    1.000
    H266     H        0.15476    0.25569    0.99602    1.000
    C267     C        0.31143    0.68584    0.00339    1.000
    C268     C        0.34666    0.68632    0.03664    1.000
    C269     C        0.38076    0.65200    0.03643    1.000
    X270     C        0.37996    0.61681    0.00296    1.000
    C271     C        0.34468    0.61661    0.96955    1.000
    C272     C        0.31058    0.65092    0.96982    1.000
    C273     C        0.27617    0.72109    0.00373    1.000
    C274     C        0.24661    0.75058    0.00395    1.000
    C275     C        0.21130    0.78580    0.00406    1.000
    C276     C        0.22363    0.83259    0.00420    1.000
    C277     C        0.18943    0.86680    0.00382    1.000
    X278     C        0.14224    0.85471    0.00327    1.000
    C279     C        0.13024    0.80749    0.00338    1.000
    C280     C        0.16453    0.77336    0.00375    1.000
    H281     H        0.34771    0.71316    0.06275    1.000
    H282     H        0.40771    0.65270    0.06244    1.000
    H283     H        0.34364    0.58986    0.94336    1.000
    H284     H        0.28355    0.65021    0.94389    1.000
    H285     H        0.25972    0.84266    0.00445    1.000
    H286     H        0.20004    0.90271    0.00380    1.000
    H287     H        0.09435    0.79681    0.00300    1.000
    H288     H        0.15455    0.73725    0.00366    1.000
    C289     C        0.68914    0.68608    0.99802    1.000
    C290     C        0.65454    0.68721    0.03191    1.000
    C291     C        0.62044    0.65290    0.03303    1.000
    X292     C        0.62062    0.61706    0.00024    1.000
    C293     C        0.65529    0.61617    0.96622    1.000
    C294     C        0.68939    0.65048    0.96516    1.000
    C295     C        0.72446    0.72128    0.99710    1.000
    C296     C        0.75404    0.75074    0.99650    1.000
    C297     C        0.78938    0.78593    0.99602    1.000
    C298     C        0.77709    0.83273    0.99610    1.000
    C299     C        0.81131    0.86692    0.99629    1.000
    X300     C        0.85851    0.85480    0.99644    1.000
    C301     C        0.87047    0.80757    0.99608    1.000
    C302     C        0.83615    0.77346    0.99590    1.000
    H303     H        0.65398    0.71455    0.05751    1.000
    H304     H        0.59400    0.65412    0.05952    1.000
    H305     H        0.65585    0.58890    0.94055    1.000
    H306     H        0.71594    0.64924    0.93876    1.000
    H307     H        0.74101    0.84282    0.99620    1.000
    H308     H        0.80073    0.90284    0.99652    1.000
    H309     H        0.90635    0.79687    0.99615    1.000
    H310     H        0.84611    0.73734    0.99583    1.000
    C311     C        0.68944    0.30720    0.00342    1.000
    C312     C        0.65422    0.30674    0.03668    1.000
    C313     C        0.62011    0.34106    0.03647    1.000
    X314     C        0.62091    0.37623    0.00298    1.000
    C315     C        0.65617    0.37642    0.96956    1.000
    C316     C        0.69028    0.34210    0.96984    1.000
    C317     C        0.72470    0.27194    0.00377    1.000
    C318     C        0.75426    0.24246    0.00399    1.000
    C319     C        0.78956    0.20724    0.00410    1.000
    C320     C        0.83633    0.21968    0.00384    1.000
    C321     C        0.87063    0.18554    0.00346    1.000
    X322     C        0.85862    0.13833    0.00330    1.000
    C323     C        0.81143    0.12623    0.00379    1.000
    C324     C        0.77723    0.16045    0.00418    1.000
    H325     H        0.65318    0.27991    0.06281    1.000
    H326     H        0.59318    0.34037    0.06248    1.000
    H327     H        0.65721    0.40315    0.94335    1.000
    H328     H        0.71729    0.34280    0.94389    1.000
    H329     H        0.84632    0.25579    0.00379    1.000
    H330     H        0.90651    0.19622    0.00312    1.000
    H331     H        0.80082    0.09032    0.00373    1.000
    H332     H        0.74114    0.15038    0.00440    1.000
    C333     C        0.99680    0.30750    0.31053    1.000
    C334     C        0.96354    0.34272    0.31006    1.000
    C335     C        0.96374    0.37683    0.34438    1.000
    X336     C        0.99722    0.37603    0.37956    1.000
    C337     C        0.03065    0.34078    0.37975    1.000
    C338     C        0.03038    0.30667    0.34544    1.000
    C339     C        0.99647    0.27224    0.27527    1.000
    C340     C        0.99626    0.24269    0.24578    1.000
    C341     C        0.99616    0.20738    0.21057    1.000
    C342     C        0.99609    0.21972    0.16378    1.000
    C343     C        0.99647    0.18552    0.12956    1.000
    X344     C        0.99698    0.13832    0.14165    1.000
    C345     C        0.99681    0.12632    0.18887    1.000
    C346     C        0.99643    0.16061    0.22300    1.000
    H347     H        0.93741    0.34376    0.28323    1.000
    H348     H        0.93772    0.40375    0.34369    1.000
    H349     H        0.05685    0.33975    0.40649    1.000
    H350     H        0.05633    0.27966    0.34614    1.000
    H351     H        0.99586    0.25581    0.15371    1.000
    H352     H        0.99654    0.19613    0.09365    1.000
    H353     H        0.99715    0.09043    0.19955    1.000
    H354     H        0.99648    0.15063    0.25911    1.000
    C355     C        0.00220    0.30781    0.68940    1.000
    C356     C        0.03505    0.30757    0.65381    1.000
    C357     C        0.03398    0.34167    0.61950    1.000
    X358     C        0.99995    0.37634    0.62039    1.000
    C359     C        0.96717    0.37651    0.65623    1.000
    C360     C        0.96830    0.34241    0.69055    1.000
    C361     C        0.00312    0.27250    0.72461    1.000
    C362     C        0.00374    0.24291    0.75406    1.000
    C363     C        0.00422    0.20757    0.78925    1.000
    C364     C        0.00435    0.16081    0.77679    1.000
    C365     C        0.00417    0.12648    0.81090    1.000
    X366     C        0.00382    0.13845    0.85812    1.000
    C367     C        0.00397    0.18564    0.87025    1.000
    C368     C        0.00415    0.21987    0.83606    1.000
    H369     H        0.06145    0.28102    0.65256    1.000
    H370     H        0.05964    0.34110    0.59222    1.000
    H371     H        0.94068    0.40295    0.65745    1.000
    H372     H        0.94270    0.34297    0.71789    1.000
    H373     H        0.00441    0.15085    0.74067    1.000
    H374     H        0.00411    0.09060    0.80019    1.000
    H375     H        0.00375    0.19622    0.90617    1.000
    H376     H        0.00405    0.25595    0.84615    1.000
    C377     C        0.99681    0.68553    0.68915    1.000
    C378     C        0.96356    0.65030    0.68964    1.000
    C379     C        0.96376    0.61620    0.65532    1.000
    X380     C        0.99723    0.61700    0.62013    1.000
    C381     C        0.03064    0.65227    0.61992    1.000
    C382     C        0.03038    0.68638    0.65423    1.000
    C383     C        0.99648    0.72079    0.72441    1.000
    C384     C        0.99627    0.75035    0.75390    1.000
    C385     C        0.99617    0.78566    0.78911    1.000
    C386     C        0.99604    0.77332    0.83591    1.000
    C387     C        0.99643    0.80752    0.87012    1.000
    X388     C        0.99698    0.85472    0.85803    1.000
    C389     C        0.99687    0.86672    0.81081    1.000
    C390     C        0.99649    0.83243    0.77668    1.000
    H391     H        0.93745    0.64925    0.71648    1.000
    H392     H        0.93775    0.58926    0.65602    1.000
    H393     H        0.05683    0.65331    0.59317    1.000
    H394     H        0.05631    0.71340    0.65352    1.000
    H395     H        0.99578    0.73723    0.84597    1.000
    H396     H        0.99645    0.79691    0.90603    1.000
    H397     H        0.99725    0.90261    0.80013    1.000
    H398     H        0.99657    0.84241    0.74057    1.000
    C399     C        0.00206    0.68522    0.31028    1.000
    C400     C        0.96817    0.65061    0.30915    1.000
    C401     C        0.96707    0.61652    0.34347    1.000
    X402     C        0.99986    0.61670    0.37930    1.000
    C403     C        0.03388    0.65138    0.38018    1.000
    C404     C        0.03492    0.68547    0.34587    1.000
    C405     C        0.00296    0.72053    0.27508    1.000
    C406     C        0.00356    0.75012    0.24562    1.000
    C407     C        0.00404    0.78546    0.21043    1.000
    C408     C        0.00397    0.77316    0.16362    1.000
    C409     C        0.00380    0.80739    0.12943    1.000
    X410     C        0.00366    0.85459    0.14156    1.000
    C411     C        0.00400    0.86655    0.18879    1.000
    C412     C        0.00417    0.83222    0.22290    1.000
    H413     H        0.94256    0.65005    0.28182    1.000
    H414     H        0.94058    0.59006    0.34226    1.000
    H415     H        0.05955    0.65195    0.40745    1.000
    H416     H        0.06132    0.71203    0.34711    1.000
    H417     H        0.00387    0.73709    0.15353    1.000
    H418     H        0.00358    0.79681    0.09352    1.000
    H419     H        0.00394    0.90243    0.19949    1.000
    H420     H        0.00423    0.84218    0.25901    1.000
