# CIF file generated by openbabel 3.1.0, see https://openbabel.org
data_I
_chemical_name_common 'image0'
_cell_length_a 14.6534
_cell_length_b 17.7687
_cell_length_c 31.9462
_cell_angle_alpha 90
_cell_angle_beta 90.292
_cell_angle_gamma 90
_space_group_name_H-M_alt 'P 1'
_space_group_name_Hall 'P 1'
loop_
    _symmetry_equiv_pos_as_xyz
    x,y,z
loop_
    _atom_site_label
    _atom_site_type_symbol
    _atom_site_fract_x
    _atom_site_fract_y
    _atom_site_fract_z
    _atom_site_occupancy
    C1       C        0.54800    0.58080    0.95251    1.000
    C2       C        0.45890    0.59420    0.93935    1.000
    H1       H        0.43540    0.64400    0.93980    1.000
    C3       C        0.40440    0.53570    0.92568    1.000
    C4       C        0.44170    0.46340    0.92654    1.000
    H2       H        0.40730    0.42160    0.91680    1.000
    C5       C        0.53060    0.45330    0.94200    1.000
    C6       C        0.57330    0.37820    0.94584    1.000
    C7       C        0.52350    0.31170    0.94462    1.000
    H3       H        0.45950    0.31360    0.93990    1.000
    C8       C        0.56600    0.24220    0.95016    1.000
    H4       H        0.53090    0.19720    0.94920    1.000
    C9       C        0.65890    0.23860    0.95708    1.000
    C10      C        0.70910    0.30410    0.95870    1.000
    H5       H        0.77300    0.30200    0.96380    1.000
    C11      C        0.66640    0.37320    0.95300    1.000
    H6       H        0.70190    0.41800    0.95410    1.000
    C12      C        0.70460    0.16430    0.96426    1.000
    C13      C        0.30980    0.54880    0.91010    1.000
    C14      C        0.24360    0.49250    0.91030    1.000
    H7       H        0.25760    0.44400    0.92110    1.000
    C15      C        0.15790    0.50750    0.89460    1.000
    H8       H        0.11430    0.46800    0.89510    1.000
    C16      C        0.19590    0.62820    0.87920    1.000
    H9       H        0.17990    0.67620    0.86840    1.000
    C17      C        0.28300    0.61820    0.89450    1.000
    H10      H        0.32500    0.65890    0.89430    1.000
    C18      C        0.00090    0.86570    0.11367    1.000
    C19      C        0.07680    0.82520    0.13611    1.000
    C20      C        0.16630    0.84030    0.12515    1.000
    H11      H        0.17920    0.87630    0.10400    1.000
    C21      C        0.23700    0.80260    0.14516    1.000
    H12      H        0.29820    0.81370    0.13780    1.000
    C22      C        0.21990    0.74910    0.17570    1.000
    C23      C        0.12910    0.73580    0.18690    1.000
    H13      H        0.11580    0.70060    0.20840    1.000
    C24      C        0.05840    0.77330    0.16694    1.000
    H14      H        0.99700    0.76330    0.17460    1.000
    C25      C        0.29620    0.70790    0.19663    1.000
    C26      C        0.38120    0.70300    0.17833    1.000
    H15      H        0.39130    0.72440    0.15150    1.000
    C27      C        0.45200    0.66680    0.19939    1.000
    C28      C        0.43240    0.63370    0.23748    1.000
    H16      H        0.47850    0.60740    0.25250    1.000
    C29      C        0.34450    0.63910    0.25365    1.000
    C30      C        0.32010    0.60740    0.29550    1.000
    C31      C        0.38010    0.56070    0.31734    1.000
    H17      H        0.43620    0.54620    0.30500    1.000
    C32      C        0.35800    0.53520    0.35731    1.000
    H18      H        0.39920    0.50290    0.37170    1.000
    C33      C        0.27770    0.55600    0.37620    1.000
    C34      C        0.21660    0.60170    0.35391    1.000
    H19      H        0.15980    0.61500    0.36600    1.000
    C35      C        0.23840    0.62750    0.31469    1.000
    H20      H        0.19690    0.65960    0.30030    1.000
    C36      C        0.25510    0.53160    0.41936    1.000
    C37      C        0.54570    0.66650    0.18207    1.000
    C38      C        0.60890    0.61190    0.19340    1.000
    H21      H        0.59210    0.57250    0.21190    1.000
    C39      C        0.69660    0.61510    0.17750    1.000
    H22      H        0.73900    0.57750    0.18590    1.000
    C40      C        0.66500    0.71880    0.14000    1.000
    H23      H        0.68320    0.75660    0.12070    1.000
    C41      C        0.57590    0.72030    0.15499    1.000
    H24      H        0.53570    0.75930    0.14630    1.000
    C42      C        0.63100    0.93380    0.09884    1.000
    C43      C        0.57120    0.92630    0.13679    1.000
    C44      C        0.47760    0.93650    0.13390    1.000
    H25      H        0.45060    0.95060    0.10800    1.000
    C45      C        0.42350    0.92600    0.16888    1.000
    H26      H        0.35950    0.93380    0.16690    1.000
    C46      C        0.46210    0.90410    0.20698    1.000
    C47      C        0.55610    0.89560    0.20948    1.000
    H27      H        0.58380    0.88150    0.23520    1.000
    C48      C        0.60920    0.90760    0.17473    1.000
    H28      H        0.67370    0.90290    0.17700    1.000
    C49      C        0.40500    0.88380    0.24380    1.000
    C50      C        0.31530    0.90520    0.24825    1.000
    H29      H        0.28700    0.93690    0.22800    1.000
    C51      C        0.26640    0.87990    0.28271    1.000
    C52      C        0.30980    0.83390    0.31120    1.000
    H30      H        0.27770    0.81540    0.33480    1.000
    C53      C        0.40110    0.81460    0.30515    1.000
    C54      C        0.45140    0.76250    0.33351    1.000
    C55      C        0.42060    0.74440    0.37316    1.000
    H31      H        0.37030    0.77090    0.38470    1.000
    C56      C        0.46260    0.68800    0.39607    1.000
    H32      H        0.44110    0.67620    0.42330    1.000
    C57      C        0.53570    0.64860    0.37969    1.000
    C58      C        0.56970    0.66890    0.34049    1.000
    H33      H        0.62100    0.64330    0.32930    1.000
    C59      C        0.52950    0.72560    0.31812    1.000
    H34      H        0.55430    0.74030    0.29200    1.000
    C60      C        0.57300    0.58100    0.40067    1.000
    C61      C        0.16870    0.89850    0.28700    1.000
    C62      C        0.11200    0.90500    0.25250    1.000
    H35      H        0.13600    0.89820    0.22520    1.000
    C63      C        0.02100    0.92120    0.25750    1.000
    H36      H        0.98370    0.92340    0.23310    1.000
    C64      C        0.03630    0.92850    0.32640    1.000
    H37      H        0.01010    0.93710    0.35310    1.000
    C65      C        0.12990    0.91110    0.32570    1.000
    H38      H        0.16500    0.90810    0.35070    1.000
    C66      C        0.53120    0.10420    0.04912    1.000
    H39      H        0.49370    0.13260    0.06750    1.000
    N1       N        0.13170    0.57330    0.87890    1.000
    N2       N        0.58260    0.51160    0.95425    1.000
    N3       N        0.72440    0.66830    0.15110    1.000
    N4       N        0.27680    0.67580    0.23374    1.000
    N5       N        0.98190    0.93390    0.29420    1.000
    N6       N        0.44760    0.83950    0.27186    1.000
    O1       O        0.65580    0.10669    0.96238    1.000
    O2       O        0.78880    0.16432    0.97187    1.000
    O3       O        0.01800    0.89907    0.07915    1.000
    O4       O        0.92180    0.86650    0.12837    1.000
    O5       O        0.17690    0.54672    0.43344    1.000
    O6       O        0.31580    0.49743    0.44055    1.000
    O7       O        0.59180    0.94440    0.06423    1.000
    O8       O        0.71540    0.92720    0.10423    1.000
    O9       O        0.62500    0.53770    0.38100    1.000
    O10      O        0.54840    0.56562    0.43810    1.000
    O11      O        0.49370    0.06646    0.02047    1.000
    O12      O        0.61430    0.10580    0.05431    1.000
    O13      O        0.77970    0.03735    0.03220    1.000
    O14      O        0.93180    0.94659    0.00600    1.000
    H40      H        0.77900    0.06100    0.05640    1.000
    H41      H        0.91500    0.91800    0.98600    1.000
    C67      C        0.76230    0.82100    0.02239    1.000
    C68      C        0.71320    0.75840    0.00142    1.000
    C69      C        0.64860    0.77320    0.97110    1.000
    H42      H        0.63980    0.82340    0.96170    1.000
    C70      C        0.59610    0.71570    0.95410    1.000
    H43      H        0.55170    0.72690    0.93330    1.000
    C71      C        0.60780    0.64220    0.96725    1.000
    C72      C        0.67860    0.62670    0.99510    1.000
    H44      H        0.69220    0.57590    0.00210    1.000
    C73      C        0.72960    0.68450    0.01300    1.000
    H45      H        0.77550    0.67330    0.03320    1.000
    O15      O        0.74270    0.88857    0.01343    1.000
    O16      O        0.82380    0.80730    0.04957    1.000
    Eu1      Eu       0.85316    0.93813    0.06939    1.000
    Eu2      Eu       0.09423    0.92457    0.01238    1.000
    Eu3      Eu       0.64187    0.99742    0.00142    1.000
    C74      C        0.95200    0.08080    0.54749    1.000
    C75      C        0.04110    0.09420    0.56065    1.000
    H46      H        0.06460    0.14400    0.56020    1.000
    C76      C        0.09560    0.03570    0.57432    1.000
    C77      C        0.05830    0.96340    0.57346    1.000
    H47      H        0.09270    0.92160    0.58320    1.000
    C78      C        0.96940    0.95330    0.55800    1.000
    C79      C        0.92670    0.87820    0.55416    1.000
    C80      C        0.97650    0.81170    0.55538    1.000
    H48      H        0.04050    0.81360    0.56010    1.000
    C81      C        0.93400    0.74220    0.54984    1.000
    H49      H        0.96910    0.69720    0.55080    1.000
    C82      C        0.84110    0.73860    0.54292    1.000
    C83      C        0.79090    0.80410    0.54130    1.000
    H50      H        0.72700    0.80200    0.53620    1.000
    C84      C        0.83360    0.87320    0.54700    1.000
    H51      H        0.79810    0.91800    0.54590    1.000
    C85      C        0.79540    0.66430    0.53574    1.000
    C86      C        0.19020    0.04880    0.58990    1.000
    C87      C        0.25640    0.99250    0.58970    1.000
    H52      H        0.24240    0.94400    0.57890    1.000
    C88      C        0.34210    0.00750    0.60540    1.000
    H53      H        0.38570    0.96800    0.60490    1.000
    C89      C        0.30410    0.12820    0.62080    1.000
    H54      H        0.32010    0.17620    0.63160    1.000
    C90      C        0.21700    0.11820    0.60550    1.000
    H55      H        0.17500    0.15890    0.60570    1.000
    C91      C        0.49910    0.36570    0.38633    1.000
    C92      C        0.42320    0.32520    0.36389    1.000
    C93      C        0.33370    0.34030    0.37485    1.000
    H56      H        0.32080    0.37630    0.39600    1.000
    C94      C        0.26300    0.30260    0.35484    1.000
    H57      H        0.20180    0.31370    0.36220    1.000
    C95      C        0.28010    0.24910    0.32430    1.000
    C96      C        0.37090    0.23580    0.31310    1.000
    H58      H        0.38420    0.20060    0.29160    1.000
    C97      C        0.44160    0.27330    0.33306    1.000
    H59      H        0.50300    0.26330    0.32540    1.000
    C98      C        0.20380    0.20790    0.30337    1.000
    C99      C        0.11880    0.20300    0.32167    1.000
    H60      H        0.10870    0.22440    0.34850    1.000
    C100     C        0.04800    0.16680    0.30061    1.000
    C101     C        0.06760    0.13370    0.26252    1.000
    H61      H        0.02150    0.10740    0.24750    1.000
    C102     C        0.15550    0.13910    0.24635    1.000
    C103     C        0.17990    0.10740    0.20450    1.000
    C104     C        0.11990    0.06070    0.18266    1.000
    H62      H        0.06380    0.04620    0.19500    1.000
    C105     C        0.14200    0.03520    0.14269    1.000
    H63      H        0.10080    0.00290    0.12830    1.000
    C106     C        0.22230    0.05600    0.12380    1.000
    C107     C        0.28340    0.10170    0.14609    1.000
    H64      H        0.34020    0.11500    0.13400    1.000
    C108     C        0.26160    0.12750    0.18531    1.000
    H65      H        0.30310    0.15960    0.19970    1.000
    C109     C        0.24490    0.03160    0.08064    1.000
    C110     C        0.95430    0.16650    0.31793    1.000
    C111     C        0.89110    0.11190    0.30660    1.000
    H66      H        0.90790    0.07250    0.28810    1.000
    C112     C        0.80340    0.11510    0.32250    1.000
    H67      H        0.76100    0.07750    0.31410    1.000
    C113     C        0.83500    0.21880    0.36000    1.000
    H68      H        0.81680    0.25660    0.37930    1.000
    C114     C        0.92410    0.22030    0.34501    1.000
    H69      H        0.96430    0.25930    0.35370    1.000
    C115     C        0.86900    0.43380    0.40116    1.000
    C116     C        0.92880    0.42630    0.36321    1.000
    C117     C        0.02240    0.43650    0.36610    1.000
    H70      H        0.04940    0.45060    0.39200    1.000
    C118     C        0.07650    0.42600    0.33112    1.000
    H71      H        0.14050    0.43380    0.33310    1.000
    C119     C        0.03790    0.40410    0.29302    1.000
    C120     C        0.94390    0.39560    0.29052    1.000
    H72      H        0.91620    0.38150    0.26480    1.000
    C121     C        0.89080    0.40760    0.32527    1.000
    H73      H        0.82630    0.40290    0.32300    1.000
    C122     C        0.09500    0.38380    0.25620    1.000
    C123     C        0.18470    0.40520    0.25175    1.000
    H74      H        0.21300    0.43690    0.27200    1.000
    C124     C        0.23360    0.37990    0.21729    1.000
    C125     C        0.19020    0.33390    0.18880    1.000
    H75      H        0.22230    0.31540    0.16520    1.000
    C126     C        0.09890    0.31460    0.19485    1.000
    C127     C        0.04860    0.26250    0.16649    1.000
    C128     C        0.07940    0.24440    0.12684    1.000
    H76      H        0.12970    0.27090    0.11530    1.000
    C129     C        0.03740    0.18800    0.10393    1.000
    H77      H        0.05890    0.17620    0.07670    1.000
    C130     C        0.96430    0.14860    0.12031    1.000
    C131     C        0.93030    0.16890    0.15951    1.000
    H78      H        0.87900    0.14330    0.17070    1.000
    C132     C        0.97050    0.22560    0.18188    1.000
    H79      H        0.94570    0.24030    0.20800    1.000
    C133     C        0.92700    0.08100    0.09933    1.000
    C134     C        0.33130    0.39850    0.21300    1.000
    C135     C        0.38800    0.40500    0.24750    1.000
    H80      H        0.36400    0.39820    0.27480    1.000
    C136     C        0.47900    0.42120    0.24250    1.000
    H81      H        0.51630    0.42340    0.26690    1.000
    C137     C        0.46370    0.42850    0.17360    1.000
    H82      H        0.48990    0.43710    0.14690    1.000
    C138     C        0.37010    0.41110    0.17430    1.000
    H83      H        0.33500    0.40810    0.14930    1.000
    C139     C        0.96880    0.60420    0.45088    1.000
    H84      H        0.00630    0.63260    0.43250    1.000
    N7       N        0.36830    0.07330    0.62110    1.000
    N8       N        0.91740    0.01160    0.54575    1.000
    N9       N        0.77560    0.16830    0.34890    1.000
    N10      N        0.22320    0.17580    0.26626    1.000
    N11      N        0.51810    0.43390    0.20580    1.000
    N12      N        0.05240    0.33950    0.22814    1.000
    O17      O        0.84420    0.60669    0.53762    1.000
    O18      O        0.71120    0.66432    0.52813    1.000
    O19      O        0.48200    0.39907    0.42085    1.000
    O20      O        0.57820    0.36650    0.37163    1.000
    O21      O        0.32310    0.04672    0.06656    1.000
    O22      O        0.18420    0.99743    0.05945    1.000
    O23      O        0.90820    0.44440    0.43577    1.000
    O24      O        0.78460    0.42720    0.39577    1.000
    O25      O        0.87500    0.03770    0.11900    1.000
    O26      O        0.95160    0.06562    0.06190    1.000
    O27      O        0.00630    0.56646    0.47953    1.000
    O28      O        0.88570    0.60580    0.44569    1.000
    O29      O        0.72030    0.53735    0.46780    1.000
    O30      O        0.56820    0.44659    0.49400    1.000
    H85      H        0.72100    0.56100    0.44360    1.000
    H86      H        0.58500    0.41800    0.51400    1.000
    C140     C        0.73770    0.32100    0.47761    1.000
    C141     C        0.78680    0.25840    0.49858    1.000
    C142     C        0.85140    0.27320    0.52890    1.000
    H87      H        0.86020    0.32340    0.53830    1.000
    C143     C        0.90390    0.21570    0.54590    1.000
    H88      H        0.94830    0.22690    0.56670    1.000
    C144     C        0.89220    0.14220    0.53275    1.000
    C145     C        0.82140    0.12670    0.50490    1.000
    H89      H        0.80780    0.07590    0.49790    1.000
    C146     C        0.77040    0.18450    0.48700    1.000
    H90      H        0.72450    0.17330    0.46680    1.000
    O31      O        0.75730    0.38857    0.48657    1.000
    O32      O        0.67620    0.30730    0.45043    1.000
    Eu4      Eu       0.64684    0.43813    0.43061    1.000
    Eu5      Eu       0.40577    0.42457    0.48762    1.000
    Eu6      Eu       0.85813    0.49742    0.49858    1.000
    C147     C        0.45200    0.41920    0.04749    1.000
    C148     C        0.54110    0.40580    0.06065    1.000
    H91      H        0.56460    0.35600    0.06020    1.000
    C149     C        0.59560    0.46430    0.07432    1.000
    C150     C        0.55830    0.53660    0.07346    1.000
    H92      H        0.59270    0.57840    0.08320    1.000
    C151     C        0.46940    0.54670    0.05800    1.000
    C152     C        0.42670    0.62180    0.05416    1.000
    C153     C        0.47650    0.68830    0.05538    1.000
    H93      H        0.54050    0.68640    0.06010    1.000
    C154     C        0.43400    0.75780    0.04984    1.000
    H94      H        0.46910    0.80280    0.05080    1.000
    C155     C        0.34110    0.76140    0.04292    1.000
    C156     C        0.29090    0.69590    0.04130    1.000
    H95      H        0.22700    0.69800    0.03620    1.000
    C157     C        0.33360    0.62680    0.04700    1.000
    H96      H        0.29810    0.58200    0.04590    1.000
    C158     C        0.29540    0.83570    0.03574    1.000
    C159     C        0.69020    0.45120    0.08990    1.000
    C160     C        0.75640    0.50750    0.08970    1.000
    H97      H        0.74240    0.55600    0.07890    1.000
    C161     C        0.84210    0.49250    0.10540    1.000
    H98      H        0.88570    0.53200    0.10490    1.000
    C162     C        0.80410    0.37180    0.12080    1.000
    H99      H        0.82010    0.32380    0.13160    1.000
    C163     C        0.71700    0.38180    0.10550    1.000
    H100     H        0.67500    0.34110    0.10570    1.000
    C164     C        0.99910    0.13430    0.88633    1.000
    C165     C        0.92320    0.17480    0.86389    1.000
    C166     C        0.83370    0.15970    0.87485    1.000
    H101     H        0.82080    0.12370    0.89600    1.000
    C167     C        0.76300    0.19740    0.85484    1.000
    H102     H        0.70180    0.18630    0.86220    1.000
    C168     C        0.78010    0.25090    0.82430    1.000
    C169     C        0.87090    0.26420    0.81310    1.000
    H103     H        0.88420    0.29940    0.79160    1.000
    C170     C        0.94160    0.22670    0.83306    1.000
    H104     H        0.00300    0.23670    0.82540    1.000
    C171     C        0.70380    0.29210    0.80337    1.000
    C172     C        0.61880    0.29700    0.82167    1.000
    H105     H        0.60870    0.27560    0.84850    1.000
    C173     C        0.54800    0.33320    0.80061    1.000
    C174     C        0.56760    0.36630    0.76252    1.000
    H106     H        0.52150    0.39260    0.74750    1.000
    C175     C        0.65550    0.36090    0.74635    1.000
    C176     C        0.67990    0.39260    0.70450    1.000
    C177     C        0.61990    0.43930    0.68266    1.000
    H107     H        0.56380    0.45380    0.69500    1.000
    C178     C        0.64200    0.46480    0.64269    1.000
    H108     H        0.60080    0.49710    0.62830    1.000
    C179     C        0.72230    0.44400    0.62380    1.000
    C180     C        0.78340    0.39830    0.64609    1.000
    H109     H        0.84020    0.38500    0.63400    1.000
    C181     C        0.76160    0.37250    0.68531    1.000
    H110     H        0.80310    0.34040    0.69970    1.000
    C182     C        0.74490    0.46840    0.58064    1.000
    C183     C        0.45430    0.33350    0.81793    1.000
    C184     C        0.39110    0.38810    0.80660    1.000
    H111     H        0.40790    0.42750    0.78810    1.000
    C185     C        0.30340    0.38490    0.82250    1.000
    H112     H        0.26100    0.42250    0.81410    1.000
    C186     C        0.33500    0.28120    0.86000    1.000
    H113     H        0.31680    0.24340    0.87930    1.000
    C187     C        0.42410    0.27970    0.84501    1.000
    H114     H        0.46430    0.24070    0.85370    1.000
    C188     C        0.36900    0.06620    0.90116    1.000
    C189     C        0.42880    0.07370    0.86321    1.000
    C190     C        0.52240    0.06350    0.86610    1.000
    H115     H        0.54940    0.04940    0.89200    1.000
    C191     C        0.57650    0.07400    0.83112    1.000
    H116     H        0.64050    0.06620    0.83310    1.000
    C192     C        0.53790    0.09590    0.79302    1.000
    C193     C        0.44390    0.10440    0.79052    1.000
    H117     H        0.41620    0.11850    0.76480    1.000
    C194     C        0.39080    0.09240    0.82527    1.000
    H118     H        0.32630    0.09710    0.82300    1.000
    C195     C        0.59500    0.11620    0.75620    1.000
    C196     C        0.68470    0.09480    0.75175    1.000
    H119     H        0.71300    0.06310    0.77200    1.000
    C197     C        0.73360    0.12010    0.71729    1.000
    C198     C        0.69020    0.16610    0.68880    1.000
    H120     H        0.72230    0.18460    0.66520    1.000
    C199     C        0.59890    0.18540    0.69485    1.000
    C200     C        0.54860    0.23750    0.66649    1.000
    C201     C        0.57940    0.25560    0.62684    1.000
    H121     H        0.62970    0.22910    0.61530    1.000
    C202     C        0.53740    0.31200    0.60393    1.000
    H122     H        0.55890    0.32380    0.57670    1.000
    C203     C        0.46430    0.35140    0.62031    1.000
    C204     C        0.43030    0.33110    0.65951    1.000
    H123     H        0.37900    0.35670    0.67070    1.000
    C205     C        0.47050    0.27440    0.68188    1.000
    H124     H        0.44570    0.25970    0.70800    1.000
    C206     C        0.42700    0.41900    0.59933    1.000
    C207     C        0.83130    0.10150    0.71300    1.000
    C208     C        0.88800    0.09500    0.74750    1.000
    H125     H        0.86400    0.10180    0.77480    1.000
    C209     C        0.97900    0.07880    0.74250    1.000
    H126     H        0.01630    0.07660    0.76690    1.000
    C210     C        0.96370    0.07150    0.67360    1.000
    H127     H        0.98990    0.06290    0.64690    1.000
    C211     C        0.87010    0.08890    0.67430    1.000
    H128     H        0.83500    0.09190    0.64930    1.000
    C212     C        0.46880    0.89580    0.95088    1.000
    H129     H        0.50630    0.86740    0.93250    1.000
    N13      N        0.86830    0.42670    0.12110    1.000
    N14      N        0.41740    0.48840    0.04575    1.000
    N15      N        0.27560    0.33170    0.84890    1.000
    N16      N        0.72320    0.32420    0.76626    1.000
    N17      N        0.01810    0.06610    0.70580    1.000
    N18      N        0.55240    0.16050    0.72814    1.000
    O33      O        0.34420    0.89331    0.03762    1.000
    O34      O        0.21120    0.83568    0.02813    1.000
    O35      O        0.98200    0.10093    0.92085    1.000
    O36      O        0.07820    0.13350    0.87163    1.000
    O37      O        0.82310    0.45328    0.56656    1.000
    O38      O        0.68420    0.50257    0.55945    1.000
    O39      O        0.40820    0.05560    0.93577    1.000
    O40      O        0.28460    0.07280    0.89577    1.000
    O41      O        0.37500    0.46230    0.61900    1.000
    O42      O        0.45160    0.43438    0.56190    1.000
    O43      O        0.50630    0.93354    0.97953    1.000
    O44      O        0.38570    0.89420    0.94569    1.000
    O45      O        0.22030    0.96265    0.96780    1.000
    O46      O        0.06820    0.05341    0.99400    1.000
    H130     H        0.22100    0.93900    0.94360    1.000
    H131     H        0.08500    0.08200    0.01400    1.000
    C213     C        0.23770    0.17900    0.97761    1.000
    C214     C        0.28680    0.24160    0.99858    1.000
    C215     C        0.35140    0.22680    0.02890    1.000
    H132     H        0.36020    0.17660    0.03830    1.000
    C216     C        0.40390    0.28430    0.04590    1.000
    H133     H        0.44830    0.27310    0.06670    1.000
    C217     C        0.39220    0.35780    0.03275    1.000
    C218     C        0.32140    0.37330    0.00490    1.000
    H134     H        0.30780    0.42410    0.99790    1.000
    C219     C        0.27040    0.31550    0.98700    1.000
    H135     H        0.22450    0.32670    0.96680    1.000
    O47      O        0.25730    0.11143    0.98657    1.000
    O48      O        0.17620    0.19270    0.95043    1.000
    Eu7      Eu       0.14684    0.06187    0.93061    1.000
    Eu8      Eu       0.90577    0.07543    0.98762    1.000
    Eu9      Eu       0.35813    0.00258    0.99858    1.000
    C220     C        0.04800    0.91920    0.45251    1.000
    C221     C        0.95890    0.90580    0.43935    1.000
    H136     H        0.93540    0.85600    0.43980    1.000
    C222     C        0.90440    0.96430    0.42568    1.000
    C223     C        0.94170    0.03660    0.42654    1.000
    H137     H        0.90730    0.07840    0.41680    1.000
    C224     C        0.03060    0.04670    0.44200    1.000
    C225     C        0.07330    0.12180    0.44584    1.000
    C226     C        0.02350    0.18830    0.44462    1.000
    H138     H        0.95950    0.18640    0.43990    1.000
    C227     C        0.06600    0.25780    0.45016    1.000
    H139     H        0.03090    0.30280    0.44920    1.000
    C228     C        0.15890    0.26140    0.45708    1.000
    C229     C        0.20910    0.19590    0.45870    1.000
    H140     H        0.27300    0.19800    0.46380    1.000
    C230     C        0.16640    0.12680    0.45300    1.000
    H141     H        0.20190    0.08200    0.45410    1.000
    C231     C        0.20460    0.33570    0.46426    1.000
    C232     C        0.80980    0.95120    0.41010    1.000
    C233     C        0.74360    0.00750    0.41030    1.000
    H142     H        0.75760    0.05600    0.42110    1.000
    C234     C        0.65790    0.99250    0.39460    1.000
    H143     H        0.61430    0.03200    0.39510    1.000
    C235     C        0.69590    0.87180    0.37920    1.000
    H144     H        0.67990    0.82380    0.36840    1.000
    C236     C        0.78300    0.88180    0.39450    1.000
    H145     H        0.82500    0.84110    0.39430    1.000
    C237     C        0.50090    0.63430    0.61367    1.000
    C238     C        0.57680    0.67480    0.63611    1.000
    C239     C        0.66630    0.65970    0.62515    1.000
    H146     H        0.67920    0.62370    0.60400    1.000
    C240     C        0.73700    0.69740    0.64516    1.000
    H147     H        0.79820    0.68630    0.63780    1.000
    C241     C        0.71990    0.75090    0.67570    1.000
    C242     C        0.62910    0.76420    0.68690    1.000
    H148     H        0.61580    0.79940    0.70840    1.000
    C243     C        0.55840    0.72670    0.66694    1.000
    H149     H        0.49700    0.73670    0.67460    1.000
    C244     C        0.79620    0.79210    0.69663    1.000
    C245     C        0.88120    0.79700    0.67833    1.000
    H150     H        0.89130    0.77560    0.65150    1.000
    C246     C        0.95200    0.83320    0.69939    1.000
    C247     C        0.93240    0.86630    0.73748    1.000
    H151     H        0.97850    0.89260    0.75250    1.000
    C248     C        0.84450    0.86090    0.75365    1.000
    C249     C        0.82010    0.89260    0.79550    1.000
    C250     C        0.88010    0.93930    0.81734    1.000
    H152     H        0.93620    0.95380    0.80500    1.000
    C251     C        0.85800    0.96480    0.85731    1.000
    H153     H        0.89920    0.99710    0.87170    1.000
    C252     C        0.77770    0.94400    0.87620    1.000
    C253     C        0.71660    0.89830    0.85391    1.000
    H154     H        0.65980    0.88500    0.86600    1.000
    C254     C        0.73840    0.87250    0.81469    1.000
    H155     H        0.69690    0.84040    0.80030    1.000
    C255     C        0.75510    0.96840    0.91936    1.000
    C256     C        0.04570    0.83350    0.68207    1.000
    C257     C        0.10890    0.88810    0.69340    1.000
    H156     H        0.09210    0.92750    0.71190    1.000
    C258     C        0.19660    0.88490    0.67750    1.000
    H157     H        0.23900    0.92250    0.68590    1.000
    C259     C        0.16500    0.78120    0.64000    1.000
    H158     H        0.18320    0.74340    0.62070    1.000
    C260     C        0.07590    0.77970    0.65499    1.000
    H159     H        0.03570    0.74070    0.64630    1.000
    C261     C        0.13100    0.56620    0.59884    1.000
    C262     C        0.07120    0.57370    0.63679    1.000
    C263     C        0.97760    0.56350    0.63390    1.000
    H160     H        0.95060    0.54940    0.60800    1.000
    C264     C        0.92350    0.57400    0.66888    1.000
    H161     H        0.85950    0.56620    0.66690    1.000
    C265     C        0.96210    0.59590    0.70698    1.000
    C266     C        0.05610    0.60440    0.70948    1.000
    H162     H        0.08380    0.61850    0.73520    1.000
    C267     C        0.10920    0.59240    0.67473    1.000
    H163     H        0.17370    0.59710    0.67700    1.000
    C268     C        0.90500    0.61620    0.74380    1.000
    C269     C        0.81530    0.59480    0.74825    1.000
    H164     H        0.78700    0.56310    0.72800    1.000
    C270     C        0.76640    0.62010    0.78271    1.000
    C271     C        0.80980    0.66610    0.81120    1.000
    H165     H        0.77770    0.68460    0.83480    1.000
    C272     C        0.90110    0.68540    0.80515    1.000
    C273     C        0.95140    0.73750    0.83351    1.000
    C274     C        0.92060    0.75560    0.87316    1.000
    H166     H        0.87030    0.72910    0.88470    1.000
    C275     C        0.96260    0.81200    0.89607    1.000
    H167     H        0.94110    0.82380    0.92330    1.000
    C276     C        0.03570    0.85140    0.87969    1.000
    C277     C        0.06970    0.83110    0.84049    1.000
    H168     H        0.12100    0.85670    0.82930    1.000
    C278     C        0.02950    0.77440    0.81812    1.000
    H169     H        0.05430    0.75970    0.79200    1.000
    C279     C        0.07300    0.91900    0.90067    1.000
    C280     C        0.66870    0.60150    0.78700    1.000
    C281     C        0.61200    0.59500    0.75250    1.000
    H170     H        0.63600    0.60180    0.72520    1.000
    C282     C        0.52100    0.57880    0.75750    1.000
    H171     H        0.48370    0.57660    0.73310    1.000
    C283     C        0.53630    0.57150    0.82640    1.000
    H172     H        0.51010    0.56290    0.85310    1.000
    C284     C        0.62990    0.58890    0.82570    1.000
    H173     H        0.66500    0.59190    0.85070    1.000
    C285     C        0.03120    0.39580    0.54912    1.000
    H174     H        0.99370    0.36740    0.56750    1.000
    N19      N        0.63170    0.92670    0.37890    1.000
    N20      N        0.08260    0.98840    0.45425    1.000
    N21      N        0.22440    0.83170    0.65110    1.000
    N22      N        0.77680    0.82420    0.73374    1.000
    N23      N        0.48190    0.56610    0.79420    1.000
    N24      N        0.94760    0.66050    0.77186    1.000
    O49      O        0.15580    0.39331    0.46238    1.000
    O50      O        0.28880    0.33568    0.47187    1.000
    O51      O        0.51800    0.60093    0.57915    1.000
    O52      O        0.42180    0.63350    0.62837    1.000
    O53      O        0.67690    0.95328    0.93344    1.000
    O54      O        0.81580    0.00257    0.94055    1.000
    O55      O        0.09180    0.55560    0.56423    1.000
    O56      O        0.21540    0.57280    0.60423    1.000
    O57      O        0.12500    0.96230    0.88100    1.000
    O58      O        0.04840    0.93438    0.93810    1.000
    O59      O        0.99370    0.43354    0.52047    1.000
    O60      O        0.11430    0.39420    0.55431    1.000
    O61      O        0.27970    0.46265    0.53220    1.000
    O62      O        0.43180    0.55341    0.50600    1.000
    H175     H        0.27900    0.43900    0.55640    1.000
    H176     H        0.41500    0.58200    0.48600    1.000
    C286     C        0.26230    0.67900    0.52239    1.000
    C287     C        0.21320    0.74160    0.50142    1.000
    C288     C        0.14860    0.72680    0.47110    1.000
    H177     H        0.13980    0.67660    0.46170    1.000
    C289     C        0.09610    0.78430    0.45410    1.000
    H178     H        0.05170    0.77310    0.43330    1.000
    C290     C        0.10780    0.85780    0.46725    1.000
    C291     C        0.17860    0.87330    0.49510    1.000
    H179     H        0.19220    0.92410    0.50210    1.000
    C292     C        0.22960    0.81550    0.51300    1.000
    H180     H        0.27550    0.82670    0.53320    1.000
    O63      O        0.24270    0.61143    0.51343    1.000
    O64      O        0.32380    0.69270    0.54957    1.000
    Eu10     Eu       0.35316    0.56187    0.56939    1.000
    Eu11     Eu       0.59423    0.57543    0.51238    1.000
    Eu12     Eu       0.14187    0.50258    0.50142    1.000
