# CIF file generated by openbabel 3.1.0, see https://openbabel.org
data_I
_chemical_name_common 'GUFREF_clean'
_cell_length_a 12.6739
_cell_length_b 12.6739
_cell_length_c 23.307
_cell_angle_alpha 83.0025
_cell_angle_beta 83.0025
_cell_angle_gamma 62.8056
_space_group_name_H-M_alt 'P 1'
_space_group_name_Hall 'P 1'
loop_
    _symmetry_equiv_pos_as_xyz
    x,y,z
loop_
    _atom_site_label
    _atom_site_type_symbol
    _atom_site_fract_x
    _atom_site_fract_y
    _atom_site_fract_z
    _atom_site_occupancy
    Cd1      Cd       0.35046    0.23227    0.85609    1.000
    Cd2      Cd       0.76773    0.64954    0.64391    1.000
    Cd3      Cd       0.64954    0.76773    0.14391    1.000
    Cd4      Cd       0.23227    0.35046    0.35609    1.000
    H1       H        0.49870    0.42950    0.71120    1.000
    H2       H        0.49630    0.33270    0.67630    1.000
    H3       H        0.38090    0.63310    0.68140    1.000
    H4       H        0.24020    0.77720    0.62350    1.000
    H5       H        0.12970    0.72730    0.56960    1.000
    H6       H        0.30100    0.38900    0.63160    1.000
    H7       H        0.16460    0.43680    0.55840    1.000
    H8       H        0.12070    0.56110    0.52300    1.000
    H9       H        0.15230    0.51590    0.86780    1.000
    H10      H        0.06120    0.65380    0.93560    1.000
    H11      H        0.18470    0.39050    0.05960    1.000
    H12      H        0.27310    0.25990    0.98870    1.000
    H13      H        0.02010    0.59970    0.08250    1.000
    H14      H        0.00770    0.70310    0.03500    1.000
    H15      H        0.12700    0.69180    0.10930    1.000
    H16      H        0.21850    0.56330    0.09320    1.000
    H17      H        0.16960    0.76800    0.01720    1.000
    H18      H        0.26370    0.63910    0.00260    1.000
    H19      H        0.22330    0.87950    0.07860    1.000
    H20      H        0.36920    0.89900    0.11760    1.000
    H21      H        0.59230    0.57190    0.09460    1.000
    H22      H        0.45270    0.54270    0.05430    1.000
    H23      H        0.13300    0.37680    0.77590    1.000
    H24      H        0.96520    0.38500    0.74670    1.000
    H25      H        0.04860    0.06640    0.82810    1.000
    H26      H        0.21290    0.06810    0.85770    1.000
    H27      H        0.81120    0.26080    0.79940    1.000
    H28      H        0.84340    0.29380    0.73500    1.000
    H29      H        0.90660    0.06060    0.78220    1.000
    H30      H        0.57050    0.50130    0.78880    1.000
    H31      H        0.66730    0.50370    0.82370    1.000
    H32      H        0.36690    0.61910    0.81860    1.000
    H33      H        0.22280    0.75980    0.87650    1.000
    H34      H        0.27270    0.87030    0.93040    1.000
    H35      H        0.61100    0.69900    0.86840    1.000
    H36      H        0.56320    0.83540    0.94160    1.000
    H37      H        0.43890    0.87930    0.97700    1.000
    H38      H        0.48410    0.84770    0.63220    1.000
    H39      H        0.34620    0.93880    0.56440    1.000
    H40      H        0.60950    0.81530    0.44040    1.000
    H41      H        0.74010    0.72690    0.51130    1.000
    H42      H        0.40030    0.97990    0.41750    1.000
    H43      H        0.29690    0.99230    0.46500    1.000
    H44      H        0.30820    0.87300    0.39070    1.000
    H45      H        0.43670    0.78150    0.40680    1.000
    H46      H        0.23200    0.83040    0.48280    1.000
    H47      H        0.36090    0.73630    0.49740    1.000
    H48      H        0.12050    0.77670    0.42140    1.000
    H49      H        0.10100    0.63080    0.38240    1.000
    H50      H        0.42810    0.40770    0.40540    1.000
    H51      H        0.45730    0.54730    0.44570    1.000
    H52      H        0.62320    0.86700    0.72410    1.000
    H53      H        0.61500    0.03480    0.75330    1.000
    H54      H        0.93360    0.95140    0.67190    1.000
    H55      H        0.93190    0.78710    0.64230    1.000
    H56      H        0.73920    0.18880    0.70060    1.000
    H57      H        0.70620    0.15660    0.76500    1.000
    H58      H        0.93940    0.09340    0.71780    1.000
    H59      H        0.50130    0.57050    0.28880    1.000
    H60      H        0.50370    0.66730    0.32370    1.000
    H61      H        0.61910    0.36690    0.31860    1.000
    H62      H        0.75980    0.22280    0.37650    1.000
    H63      H        0.87030    0.27270    0.43040    1.000
    H64      H        0.69900    0.61100    0.36840    1.000
    H65      H        0.83540    0.56320    0.44160    1.000
    H66      H        0.87930    0.43890    0.47700    1.000
    H67      H        0.84770    0.48410    0.13220    1.000
    H68      H        0.93880    0.34620    0.06440    1.000
    H69      H        0.81530    0.60950    0.94040    1.000
    H70      H        0.72690    0.74010    0.01130    1.000
    H71      H        0.97990    0.40030    0.91750    1.000
    H72      H        0.99230    0.29690    0.96500    1.000
    H73      H        0.87300    0.30820    0.89070    1.000
    H74      H        0.78150    0.43670    0.90680    1.000
    H75      H        0.83040    0.23200    0.98280    1.000
    H76      H        0.73630    0.36090    0.99740    1.000
    H77      H        0.77670    0.12050    0.92140    1.000
    H78      H        0.63080    0.10100    0.88240    1.000
    H79      H        0.40770    0.42810    0.90540    1.000
    H80      H        0.54730    0.45730    0.94570    1.000
    H81      H        0.86700    0.62320    0.22410    1.000
    H82      H        0.03480    0.61500    0.25330    1.000
    H83      H        0.95140    0.93360    0.17190    1.000
    H84      H        0.78710    0.93190    0.14230    1.000
    H85      H        0.18880    0.73920    0.20060    1.000
    H86      H        0.15660    0.70620    0.26500    1.000
    H87      H        0.09340    0.93940    0.21780    1.000
    H88      H        0.42950    0.49870    0.21120    1.000
    H89      H        0.33270    0.49630    0.17630    1.000
    H90      H        0.63310    0.38090    0.18140    1.000
    H91      H        0.77720    0.24020    0.12350    1.000
    H92      H        0.72730    0.12970    0.06960    1.000
    H93      H        0.38900    0.30100    0.13160    1.000
    H94      H        0.43680    0.16460    0.05840    1.000
    H95      H        0.56110    0.12070    0.02300    1.000
    H96      H        0.51590    0.15230    0.36780    1.000
    H97      H        0.65380    0.06120    0.43560    1.000
    H98      H        0.39050    0.18470    0.55960    1.000
    H99      H        0.25990    0.27310    0.48870    1.000
    H100     H        0.59970    0.02010    0.58250    1.000
    H101     H        0.70310    0.00770    0.53500    1.000
    H102     H        0.69180    0.12700    0.60930    1.000
    H103     H        0.56330    0.21850    0.59320    1.000
    H104     H        0.76800    0.16960    0.51720    1.000
    H105     H        0.63910    0.26370    0.50260    1.000
    H106     H        0.87950    0.22330    0.57860    1.000
    H107     H        0.89900    0.36920    0.61760    1.000
    H108     H        0.57190    0.59230    0.59460    1.000
    H109     H        0.54270    0.45270    0.55430    1.000
    H110     H        0.37680    0.13300    0.27590    1.000
    H111     H        0.38500    0.96520    0.24670    1.000
    H112     H        0.06640    0.04860    0.32810    1.000
    H113     H        0.06810    0.21290    0.35770    1.000
    H114     H        0.26080    0.81120    0.29940    1.000
    H115     H        0.29380    0.84340    0.23500    1.000
    H116     H        0.06060    0.90660    0.28220    1.000
    C1       C        0.39542    0.35442    0.75333    1.000
    C2       C        0.44730    0.39930    0.69952    1.000
    C3       C        0.35600    0.49560    0.66247    1.000
    C4       C        0.33693    0.61233    0.65984    1.000
    C5       C        0.25250    0.69870    0.62520    1.000
    C6       C        0.18600    0.66880    0.59280    1.000
    C7       C        0.20328    0.55328    0.59517    1.000
    C8       C        0.28866    0.46746    0.63001    1.000
    C9       C        0.12700    0.52200    0.56181    1.000
    C10      C        0.00285    0.56085    0.59249    1.000
    C11      C        0.15999    0.49039    0.90687    1.000
    C12      C        0.10482    0.57402    0.94750    1.000
    C13      C        0.11498    0.53838    0.00599    1.000
    C14      C        0.17786    0.41866    0.02085    1.000
    C15      C        0.23070    0.34050    0.97777    1.000
    C16      C        0.06337    0.62657    0.05190    1.000
    C17      C        0.16183    0.64043    0.07757    1.000
    C18      C        0.22636    0.69176    0.03373    1.000
    C19      C        0.32086    0.70846    0.06052    1.000
    C20      C        0.29830    0.81510    0.08080    1.000
    C21      C        0.38689    0.82609    0.10423    1.000
    C22      C        0.51713    0.63533    0.09080    1.000
    C23      C        0.43319    0.61699    0.06660    1.000
    C24      C        0.11526    0.31346    0.78740    1.000
    C25      C        0.01427    0.31887    0.76937    1.000
    C26      C        0.98524    0.22704    0.78452    1.000
    C27      C        0.06320    0.13200    0.81750    1.000
    C28      C        0.16263    0.13323    0.83490    1.000
    C29      C        0.87103    0.23403    0.76720    1.000
    C30      C        0.64558    0.60458    0.74667    1.000
    C31      C        0.60070    0.55270    0.80048    1.000
    C32      C        0.50440    0.64400    0.83753    1.000
    C33      C        0.38767    0.66307    0.84016    1.000
    C34      C        0.30130    0.74750    0.87480    1.000
    C35      C        0.33120    0.81400    0.90720    1.000
    C36      C        0.44672    0.79672    0.90483    1.000
    C37      C        0.53254    0.71134    0.86999    1.000
    C38      C        0.47800    0.87300    0.93819    1.000
    C39      C        0.43915    0.99715    0.90751    1.000
    C40      C        0.50961    0.84001    0.59313    1.000
    C41      C        0.42598    0.89518    0.55250    1.000
    C42      C        0.46162    0.88502    0.49401    1.000
    C43      C        0.58134    0.82214    0.47915    1.000
    C44      C        0.65950    0.76930    0.52223    1.000
    C45      C        0.37343    0.93663    0.44810    1.000
    C46      C        0.35957    0.83817    0.42243    1.000
    C47      C        0.30824    0.77364    0.46627    1.000
    C48      C        0.29154    0.67914    0.43948    1.000
    C49      C        0.18490    0.70170    0.41920    1.000
    C50      C        0.17391    0.61311    0.39577    1.000
    C51      C        0.36467    0.48287    0.40920    1.000
    C52      C        0.38301    0.56681    0.43340    1.000
    C53      C        0.68654    0.88474    0.71260    1.000
    C54      C        0.68113    0.98573    0.73063    1.000
    C55      C        0.77296    0.01476    0.71548    1.000
    C56      C        0.86800    0.93680    0.68250    1.000
    C57      C        0.86677    0.83737    0.66510    1.000
    C58      C        0.76597    0.12897    0.73280    1.000
    C59      C        0.60458    0.64558    0.24667    1.000
    C60      C        0.55270    0.60070    0.30048    1.000
    C61      C        0.64400    0.50440    0.33753    1.000
    C62      C        0.66307    0.38767    0.34016    1.000
    C63      C        0.74750    0.30130    0.37480    1.000
    C64      C        0.81400    0.33120    0.40720    1.000
    C65      C        0.79672    0.44672    0.40483    1.000
    C66      C        0.71134    0.53254    0.36999    1.000
    C67      C        0.87300    0.47800    0.43819    1.000
    C68      C        0.99715    0.43915    0.40751    1.000
    C69      C        0.84001    0.50961    0.09313    1.000
    C70      C        0.89518    0.42598    0.05250    1.000
    C71      C        0.88502    0.46162    0.99401    1.000
    C72      C        0.82214    0.58134    0.97915    1.000
    C73      C        0.76930    0.65950    0.02223    1.000
    C74      C        0.93663    0.37343    0.94810    1.000
    C75      C        0.83817    0.35957    0.92243    1.000
    C76      C        0.77364    0.30824    0.96627    1.000
    C77      C        0.67914    0.29154    0.93948    1.000
    C78      C        0.70170    0.18490    0.91920    1.000
    C79      C        0.61311    0.17391    0.89577    1.000
    C80      C        0.48287    0.36467    0.90920    1.000
    C81      C        0.56681    0.38301    0.93340    1.000
    C82      C        0.88474    0.68654    0.21260    1.000
    C83      C        0.98573    0.68113    0.23063    1.000
    C84      C        0.01476    0.77296    0.21548    1.000
    C85      C        0.93680    0.86800    0.18250    1.000
    C86      C        0.83737    0.86677    0.16510    1.000
    C87      C        0.12897    0.76597    0.23280    1.000
    C88      C        0.35442    0.39542    0.25333    1.000
    C89      C        0.39930    0.44730    0.19952    1.000
    C90      C        0.49560    0.35600    0.16247    1.000
    C91      C        0.61233    0.33693    0.15984    1.000
    C92      C        0.69870    0.25250    0.12520    1.000
    C93      C        0.66880    0.18600    0.09280    1.000
    C94      C        0.55328    0.20328    0.09517    1.000
    C95      C        0.46746    0.28866    0.13001    1.000
    C96      C        0.52200    0.12700    0.06181    1.000
    C97      C        0.56085    0.00285    0.09249    1.000
    C98      C        0.49039    0.15999    0.40687    1.000
    C99      C        0.57402    0.10482    0.44750    1.000
    C100     C        0.53838    0.11498    0.50599    1.000
    C101     C        0.41866    0.17786    0.52085    1.000
    C102     C        0.34050    0.23070    0.47777    1.000
    C103     C        0.62657    0.06337    0.55190    1.000
    C104     C        0.64043    0.16183    0.57757    1.000
    C105     C        0.69176    0.22636    0.53373    1.000
    C106     C        0.70846    0.32086    0.56052    1.000
    C107     C        0.81510    0.29830    0.58080    1.000
    C108     C        0.82609    0.38689    0.60423    1.000
    C109     C        0.63533    0.51713    0.59080    1.000
    C110     C        0.61699    0.43319    0.56660    1.000
    C111     C        0.31346    0.11526    0.28740    1.000
    C112     C        0.31887    0.01427    0.26937    1.000
    C113     C        0.22704    0.98524    0.28452    1.000
    C114     C        0.13200    0.06320    0.31750    1.000
    C115     C        0.13323    0.16263    0.33490    1.000
    C116     C        0.23403    0.87103    0.26720    1.000
    C117     C        0.87960    0.12040    0.75000    1.000
    C118     C        0.12040    0.87960    0.25000    1.000
    N1       N        0.22391    0.37451    0.92135    1.000
    N2       N        0.49593    0.73873    0.10883    1.000
    N3       N        0.19020    0.22300    0.82057    1.000
    N4       N        0.62549    0.77609    0.57865    1.000
    N5       N        0.26127    0.50407    0.39117    1.000
    N6       N        0.77700    0.80980    0.67943    1.000
    N7       N        0.77609    0.62549    0.07865    1.000
    N8       N        0.50407    0.26127    0.89117    1.000
    N9       N        0.80980    0.77700    0.17943    1.000
    N10      N        0.37451    0.22391    0.42135    1.000
    N11      N        0.73873    0.49593    0.60883    1.000
    N12      N        0.22300    0.19020    0.32057    1.000
    O1       O        0.43636    0.24396    0.76438    1.000
    O2       O        0.31622    0.42782    0.78534    1.000
    O3       O        0.99075    0.51175    0.64039    1.000
    O4       O        0.91622    0.64302    0.56933    1.000
    O5       O        0.75604    0.56364    0.73562    1.000
    O6       O        0.57218    0.68378    0.71466    1.000
    O7       O        0.48825    0.00925    0.85961    1.000
    O8       O        0.35698    0.08378    0.93067    1.000
    O9       O        0.56364    0.75604    0.23562    1.000
    O10      O        0.68378    0.57218    0.21466    1.000
    O11      O        0.00925    0.48825    0.35961    1.000
    O12      O        0.08378    0.35698    0.43067    1.000
    O13      O        0.24396    0.43636    0.26438    1.000
    O14      O        0.42782    0.31622    0.28534    1.000
    O15      O        0.51175    0.99075    0.14039    1.000
    O16      O        0.64302    0.91622    0.06933    1.000
