# CIF file generated by openbabel 3.1.0, see https://openbabel.org
data_I
_chemical_name_common 'image0'
_cell_length_a 20.909
_cell_length_b 11.364
_cell_length_c 17.699
_cell_angle_alpha 90
_cell_angle_beta 103.275
_cell_angle_gamma 90
_space_group_name_H-M_alt 'P 1'
_space_group_name_Hall 'P 1'
loop_
    _symmetry_equiv_pos_as_xyz
    x,y,z
loop_
    _atom_site_label
    _atom_site_type_symbol
    _atom_site_fract_x
    _atom_site_fract_y
    _atom_site_fract_z
    _atom_site_occupancy
    Zn1      Zn       0.05320    0.86377    0.35821    1.000
    Zn2      Zn       0.22820    0.91726    0.68576    1.000
    C1       C        0.14830    0.84360    0.52320    1.000
    C2       C        0.13150    0.72200    0.54260    1.000
    C3       C        0.16990    0.62960    0.53410    1.000
    H1       H        0.20860    0.64280    0.51790    1.000
    C4       C        0.15280    0.51510    0.54910    1.000
    H2       H        0.18000    0.45290    0.54290    1.000
    C5       C        0.09670    0.49370    0.57260    1.000
    C6       C        0.05930    0.58650    0.58440    1.000
    H3       H        0.02150    0.57360    0.60240    1.000
    C7       C        0.07700    0.70000    0.56980    1.000
    H4       H        0.05100    0.76260    0.57880    1.000
    C8       C        0.10270    0.27410    0.55880    1.000
    H5       H        0.13750    0.26910    0.53440    1.000
    C9       C        0.02860    0.33870    0.61810    1.000
    H6       H        0.00390    0.38930    0.64130    1.000
    N1       N        0.02010    0.22490    0.61410    1.000
    C10      C        0.35570    0.81250    0.68950    1.000
    C11      C        0.31430    0.72220    0.71610    1.000
    C12      C        0.32290    0.60770    0.74080    1.000
    C13      C        0.37690    0.52260    0.75100    1.000
    C14      C        0.22620    0.66290    0.74990    1.000
    H7       H        0.18430    0.66150    0.75940    1.000
    N2       N        0.12770    0.89370    0.45350    1.000
    N3       N        0.15770    0.00180    0.45850    1.000
    N4       N        0.19450    0.01420    0.52810    1.000
    N5       N        0.18910    0.91490    0.56990    1.000
    N6       N        0.07770    0.37510    0.58460    1.000
    C15      C        0.06650    0.18370    0.57630    1.000
    H8       H        0.07210    0.10520    0.56450    1.000
    N7       N        0.25191    0.75640    0.72240    1.000
    N8       N        0.26739    0.57130    0.76250    1.000
    O1       O        0.33046    0.91470    0.68010    1.000
    O2       O        0.41089    0.78780    0.67840    1.000
    O3       O        0.42964    0.54570    0.73110    1.000
    O4       O        0.36936    0.42700    0.78410    1.000
    Zn3      Zn       0.55320    0.36377    0.35821    1.000
    Zn4      Zn       0.72820    0.41726    0.68576    1.000
    C16      C        0.64830    0.34360    0.52320    1.000
    C17      C        0.63150    0.22200    0.54260    1.000
    C18      C        0.66990    0.12960    0.53410    1.000
    H9       H        0.70860    0.14280    0.51790    1.000
    C19      C        0.65280    0.01510    0.54910    1.000
    H10      H        0.68000    0.95290    0.54290    1.000
    C20      C        0.59670    0.99370    0.57260    1.000
    C21      C        0.55930    0.08650    0.58440    1.000
    H11      H        0.52150    0.07360    0.60240    1.000
    C22      C        0.57700    0.20000    0.56980    1.000
    H12      H        0.55100    0.26260    0.57880    1.000
    C23      C        0.60270    0.77410    0.55880    1.000
    H13      H        0.63750    0.76910    0.53440    1.000
    C24      C        0.52860    0.83870    0.61810    1.000
    H14      H        0.50390    0.88930    0.64130    1.000
    N9       N        0.52010    0.72490    0.61410    1.000
    C25      C        0.85570    0.31250    0.68950    1.000
    C26      C        0.81430    0.22220    0.71610    1.000
    C27      C        0.82290    0.10770    0.74080    1.000
    C28      C        0.87690    0.02260    0.75100    1.000
    C29      C        0.72620    0.16290    0.74990    1.000
    H15      H        0.68430    0.16150    0.75940    1.000
    N10      N        0.62770    0.39370    0.45350    1.000
    N11      N        0.65770    0.50180    0.45850    1.000
    N12      N        0.69450    0.51420    0.52810    1.000
    N13      N        0.68910    0.41490    0.56990    1.000
    N14      N        0.57770    0.87510    0.58460    1.000
    C30      C        0.56650    0.68370    0.57630    1.000
    H16      H        0.57210    0.60520    0.56450    1.000
    N15      N        0.75191    0.25640    0.72240    1.000
    N16      N        0.76739    0.07130    0.76250    1.000
    O5       O        0.83046    0.41470    0.68010    1.000
    O6       O        0.91089    0.28780    0.67840    1.000
    O7       O        0.92964    0.04570    0.73110    1.000
    O8       O        0.86936    0.92700    0.78410    1.000
    Zn5      Zn       0.94680    0.86377    0.14179    1.000
    Zn6      Zn       0.77180    0.91726    0.81424    1.000
    C31      C        0.85170    0.84360    0.97680    1.000
    C32      C        0.86850    0.72200    0.95740    1.000
    C33      C        0.83010    0.62960    0.96590    1.000
    H17      H        0.79140    0.64280    0.98210    1.000
    C34      C        0.84720    0.51510    0.95090    1.000
    H18      H        0.82000    0.45290    0.95710    1.000
    C35      C        0.90330    0.49370    0.92740    1.000
    C36      C        0.94070    0.58650    0.91560    1.000
    H19      H        0.97850    0.57360    0.89760    1.000
    C37      C        0.92300    0.70000    0.93020    1.000
    H20      H        0.94900    0.76260    0.92120    1.000
    C38      C        0.89730    0.27410    0.94120    1.000
    H21      H        0.86250    0.26910    0.96560    1.000
    C39      C        0.97140    0.33870    0.88190    1.000
    H22      H        0.99610    0.38930    0.85870    1.000
    N17      N        0.97990    0.22490    0.88590    1.000
    C40      C        0.64430    0.81250    0.81050    1.000
    C41      C        0.68570    0.72220    0.78390    1.000
    C42      C        0.67710    0.60770    0.75920    1.000
    C43      C        0.62310    0.52260    0.74900    1.000
    C44      C        0.77380    0.66290    0.75010    1.000
    H23      H        0.81570    0.66150    0.74060    1.000
    N18      N        0.87230    0.89370    0.04650    1.000
    N19      N        0.84230    0.00180    0.04150    1.000
    N20      N        0.80550    0.01420    0.97190    1.000
    N21      N        0.81090    0.91490    0.93010    1.000
    N22      N        0.92230    0.37510    0.91540    1.000
    C45      C        0.93350    0.18370    0.92370    1.000
    H24      H        0.92790    0.10520    0.93550    1.000
    N23      N        0.74809    0.75640    0.77760    1.000
    N24      N        0.73261    0.57130    0.73750    1.000
    O9       O        0.66954    0.91470    0.81990    1.000
    O10      O        0.58911    0.78780    0.82160    1.000
    O11      O        0.57036    0.54570    0.76890    1.000
    O12      O        0.63064    0.42700    0.71590    1.000
    Zn7      Zn       0.44680    0.36377    0.14179    1.000
    Zn8      Zn       0.27180    0.41726    0.81424    1.000
    C46      C        0.35170    0.34360    0.97680    1.000
    C47      C        0.36850    0.22200    0.95740    1.000
    C48      C        0.33010    0.12960    0.96590    1.000
    H25      H        0.29140    0.14280    0.98210    1.000
    C49      C        0.34720    0.01510    0.95090    1.000
    H26      H        0.32000    0.95290    0.95710    1.000
    C50      C        0.40330    0.99370    0.92740    1.000
    C51      C        0.44070    0.08650    0.91560    1.000
    H27      H        0.47850    0.07360    0.89760    1.000
    C52      C        0.42300    0.20000    0.93020    1.000
    H28      H        0.44900    0.26260    0.92120    1.000
    C53      C        0.39730    0.77410    0.94120    1.000
    H29      H        0.36250    0.76910    0.96560    1.000
    C54      C        0.47140    0.83870    0.88190    1.000
    H30      H        0.49610    0.88930    0.85870    1.000
    N25      N        0.47990    0.72490    0.88590    1.000
    C55      C        0.14430    0.31250    0.81050    1.000
    C56      C        0.18570    0.22220    0.78390    1.000
    C57      C        0.17710    0.10770    0.75920    1.000
    C58      C        0.12310    0.02260    0.74900    1.000
    C59      C        0.27380    0.16290    0.75010    1.000
    H31      H        0.31570    0.16150    0.74060    1.000
    N26      N        0.37230    0.39370    0.04650    1.000
    N27      N        0.34230    0.50180    0.04150    1.000
    N28      N        0.30550    0.51420    0.97190    1.000
    N29      N        0.31090    0.41490    0.93010    1.000
    N30      N        0.42230    0.87510    0.91540    1.000
    C60      C        0.43350    0.68370    0.92370    1.000
    H32      H        0.42790    0.60520    0.93550    1.000
    N31      N        0.24809    0.25640    0.77760    1.000
    N32      N        0.23261    0.07130    0.73750    1.000
    O13      O        0.16954    0.41470    0.81990    1.000
    O14      O        0.08911    0.28780    0.82160    1.000
    O15      O        0.07036    0.04570    0.76890    1.000
    O16      O        0.13064    0.92700    0.71590    1.000
    Zn9      Zn       0.94680    0.13623    0.64179    1.000
    Zn10     Zn       0.77180    0.08274    0.31424    1.000
    C61      C        0.85170    0.15640    0.47680    1.000
    C62      C        0.86850    0.27800    0.45740    1.000
    C63      C        0.83010    0.37040    0.46590    1.000
    H33      H        0.79140    0.35720    0.48210    1.000
    C64      C        0.84720    0.48490    0.45090    1.000
    H34      H        0.82000    0.54710    0.45710    1.000
    C65      C        0.90330    0.50630    0.42740    1.000
    C66      C        0.94070    0.41350    0.41560    1.000
    H35      H        0.97850    0.42640    0.39760    1.000
    C67      C        0.92300    0.30000    0.43020    1.000
    H36      H        0.94900    0.23740    0.42120    1.000
    C68      C        0.89730    0.72590    0.44120    1.000
    H37      H        0.86250    0.73090    0.46560    1.000
    C69      C        0.97140    0.66130    0.38190    1.000
    H38      H        0.99610    0.61070    0.35870    1.000
    N33      N        0.97990    0.77510    0.38590    1.000
    C70      C        0.64430    0.18750    0.31050    1.000
    C71      C        0.68570    0.27780    0.28390    1.000
    C72      C        0.67710    0.39230    0.25920    1.000
    C73      C        0.62310    0.47740    0.24900    1.000
    C74      C        0.77380    0.33710    0.25010    1.000
    H39      H        0.81570    0.33850    0.24060    1.000
    N34      N        0.87230    0.10630    0.54650    1.000
    N35      N        0.84230    0.99820    0.54150    1.000
    N36      N        0.80550    0.98580    0.47190    1.000
    N37      N        0.81090    0.08510    0.43010    1.000
    N38      N        0.92230    0.62490    0.41540    1.000
    C75      C        0.93350    0.81630    0.42370    1.000
    H40      H        0.92790    0.89480    0.43550    1.000
    N39      N        0.74809    0.24360    0.27760    1.000
    N40      N        0.73261    0.42870    0.23750    1.000
    O17      O        0.66954    0.08530    0.31990    1.000
    O18      O        0.58911    0.21220    0.32160    1.000
    O19      O        0.57036    0.45430    0.26890    1.000
    O20      O        0.63064    0.57300    0.21590    1.000
    Zn11     Zn       0.44680    0.63623    0.64179    1.000
    Zn12     Zn       0.27180    0.58274    0.31424    1.000
    C76      C        0.35170    0.65640    0.47680    1.000
    C77      C        0.36850    0.77800    0.45740    1.000
    C78      C        0.33010    0.87040    0.46590    1.000
    H41      H        0.29140    0.85720    0.48210    1.000
    C79      C        0.34720    0.98490    0.45090    1.000
    H42      H        0.32000    0.04710    0.45710    1.000
    C80      C        0.40330    0.00630    0.42740    1.000
    C81      C        0.44070    0.91350    0.41560    1.000
    H43      H        0.47850    0.92640    0.39760    1.000
    C82      C        0.42300    0.80000    0.43020    1.000
    H44      H        0.44900    0.73740    0.42120    1.000
    C83      C        0.39730    0.22590    0.44120    1.000
    H45      H        0.36250    0.23090    0.46560    1.000
    C84      C        0.47140    0.16130    0.38190    1.000
    H46      H        0.49610    0.11070    0.35870    1.000
    N41      N        0.47990    0.27510    0.38590    1.000
    C85      C        0.14430    0.68750    0.31050    1.000
    C86      C        0.18570    0.77780    0.28390    1.000
    C87      C        0.17710    0.89230    0.25920    1.000
    C88      C        0.12310    0.97740    0.24900    1.000
    C89      C        0.27380    0.83710    0.25010    1.000
    H47      H        0.31570    0.83850    0.24060    1.000
    N42      N        0.37230    0.60630    0.54650    1.000
    N43      N        0.34230    0.49820    0.54150    1.000
    N44      N        0.30550    0.48580    0.47190    1.000
    N45      N        0.31090    0.58510    0.43010    1.000
    N46      N        0.42230    0.12490    0.41540    1.000
    C90      C        0.43350    0.31630    0.42370    1.000
    H48      H        0.42790    0.39480    0.43550    1.000
    N47      N        0.24809    0.74360    0.27760    1.000
    N48      N        0.23261    0.92870    0.23750    1.000
    O21      O        0.16954    0.58530    0.31990    1.000
    O22      O        0.08911    0.71220    0.32160    1.000
    O23      O        0.07036    0.95430    0.26890    1.000
    O24      O        0.13064    0.07300    0.21590    1.000
    Zn13     Zn       0.05320    0.13623    0.85821    1.000
    Zn14     Zn       0.22820    0.08274    0.18576    1.000
    C91      C        0.14830    0.15640    0.02320    1.000
    C92      C        0.13150    0.27800    0.04260    1.000
    C93      C        0.16990    0.37040    0.03410    1.000
    H49      H        0.20860    0.35720    0.01790    1.000
    C94      C        0.15280    0.48490    0.04910    1.000
    H50      H        0.18000    0.54710    0.04290    1.000
    C95      C        0.09670    0.50630    0.07260    1.000
    C96      C        0.05930    0.41350    0.08440    1.000
    H51      H        0.02150    0.42640    0.10240    1.000
    C97      C        0.07700    0.30000    0.06980    1.000
    H52      H        0.05100    0.23740    0.07880    1.000
    C98      C        0.10270    0.72590    0.05880    1.000
    H53      H        0.13750    0.73090    0.03440    1.000
    C99      C        0.02860    0.66130    0.11810    1.000
    H54      H        0.00390    0.61070    0.14130    1.000
    N49      N        0.02010    0.77510    0.11410    1.000
    C100     C        0.35570    0.18750    0.18950    1.000
    C101     C        0.31430    0.27780    0.21610    1.000
    C102     C        0.32290    0.39230    0.24080    1.000
    C103     C        0.37690    0.47740    0.25100    1.000
    C104     C        0.22620    0.33710    0.24990    1.000
    H55      H        0.18430    0.33850    0.25940    1.000
    N50      N        0.12770    0.10630    0.95350    1.000
    N51      N        0.15770    0.99820    0.95850    1.000
    N52      N        0.19450    0.98580    0.02810    1.000
    N53      N        0.18910    0.08510    0.06990    1.000
    N54      N        0.07770    0.62490    0.08460    1.000
    C105     C        0.06650    0.81630    0.07630    1.000
    H56      H        0.07210    0.89480    0.06450    1.000
    N55      N        0.25191    0.24360    0.22240    1.000
    N56      N        0.26739    0.42870    0.26250    1.000
    O25      O        0.33046    0.08530    0.18010    1.000
    O26      O        0.41089    0.21220    0.17840    1.000
    O27      O        0.42964    0.45430    0.23110    1.000
    O28      O        0.36936    0.57300    0.28410    1.000
    Zn15     Zn       0.55320    0.63623    0.85821    1.000
    Zn16     Zn       0.72820    0.58274    0.18576    1.000
    C106     C        0.64830    0.65640    0.02320    1.000
    C107     C        0.63150    0.77800    0.04260    1.000
    C108     C        0.66990    0.87040    0.03410    1.000
    H57      H        0.70860    0.85720    0.01790    1.000
    C109     C        0.65280    0.98490    0.04910    1.000
    H58      H        0.68000    0.04710    0.04290    1.000
    C110     C        0.59670    0.00630    0.07260    1.000
    C111     C        0.55930    0.91350    0.08440    1.000
    H59      H        0.52150    0.92640    0.10240    1.000
    C112     C        0.57700    0.80000    0.06980    1.000
    H60      H        0.55100    0.73740    0.07880    1.000
    C113     C        0.60270    0.22590    0.05880    1.000
    H61      H        0.63750    0.23090    0.03440    1.000
    C114     C        0.52860    0.16130    0.11810    1.000
    H62      H        0.50390    0.11070    0.14130    1.000
    N57      N        0.52010    0.27510    0.11410    1.000
    C115     C        0.85570    0.68750    0.18950    1.000
    C116     C        0.81430    0.77780    0.21610    1.000
    C117     C        0.82290    0.89230    0.24080    1.000
    C118     C        0.87690    0.97740    0.25100    1.000
    C119     C        0.72620    0.83710    0.24990    1.000
    H63      H        0.68430    0.83850    0.25940    1.000
    N58      N        0.62770    0.60630    0.95350    1.000
    N59      N        0.65770    0.49820    0.95850    1.000
    N60      N        0.69450    0.48580    0.02810    1.000
    N61      N        0.68910    0.58510    0.06990    1.000
    N62      N        0.57770    0.12490    0.08460    1.000
    C120     C        0.56650    0.31630    0.07630    1.000
    H64      H        0.57210    0.39480    0.06450    1.000
    N63      N        0.75191    0.74360    0.22240    1.000
    N64      N        0.76739    0.92870    0.26250    1.000
    O29      O        0.83046    0.58530    0.18010    1.000
    O30      O        0.91089    0.71220    0.17840    1.000
    O31      O        0.92964    0.95430    0.23110    1.000
    O32      O        0.86936    0.07300    0.28410    1.000
