# CIF file generated by openbabel 3.1.0, see https://openbabel.org
data_I
_chemical_name_common 'image0'
_cell_length_a 22.168
_cell_length_b 22.168
_cell_length_c 37.019
_cell_angle_alpha 90
_cell_angle_beta 90
_cell_angle_gamma 120
_space_group_name_H-M_alt 'P 1'
_space_group_name_Hall 'P 1'
loop_
    _symmetry_equiv_pos_as_xyz
    x,y,z
loop_
    _atom_site_label
    _atom_site_type_symbol
    _atom_site_fract_x
    _atom_site_fract_y
    _atom_site_fract_z
    _atom_site_occupancy
    Zn1      Zn       0.08007    0.61990    0.95389    1.000
    Zn2      Zn       0.99375    0.55563    0.02396    1.000
    O1       O        0.65937    0.59780    0.96111    1.000
    O2       O        0.70200    0.57292    0.01017    1.000
    O3       O        0.92785    0.57979    0.00035    1.000
    O4       O        0.99266    0.62606    0.95065    1.000
    O5       O        0.92102    0.64383    0.84529    1.000
    O6       O        0.06575    0.55070    0.99253    1.000
    H1       H        0.10520    0.55960    0.00640    1.000
    N1       N        0.87857    0.68629    0.74224    1.000
    N2       N        0.83938    0.66904    0.86526    1.000
    N3       N        0.83854    0.71509    0.75198    1.000
    C1       C        0.70541    0.59298    0.97787    1.000
    C2       C        0.77111    0.61099    0.95729    1.000
    C3       C        0.77853    0.63352    0.92196    1.000
    H2       H        0.74370    0.63940    0.91140    1.000
    C4       C        0.93969    0.60726    0.96934    1.000
    C5       C        0.88309    0.61827    0.95372    1.000
    C6       C        0.82372    0.60289    0.97296    1.000
    H3       H        0.81880    0.58700    0.99660    1.000
    C7       C        0.88988    0.64196    0.91788    1.000
    H4       H        0.93030    0.65380    0.90500    1.000
    C8       C        0.83703    0.64762    0.90180    1.000
    C9       C        0.87992    0.66363    0.83867    1.000
    C10      C        0.86937    0.68133    0.80226    1.000
    C11      C        0.83336    0.71203    0.78802    1.000
    H5       H        0.80900    0.72820    0.80160    1.000
    C12      C        0.89748    0.66706    0.77190    1.000
    H6       H        0.92550    0.64690    0.77250    1.000
    Zn3      Zn       0.74674    0.95323    0.28722    1.000
    Zn4      Zn       0.66041    0.88896    0.35730    1.000
    O7       O        0.32604    0.93113    0.29444    1.000
    O8       O        0.36867    0.90625    0.34350    1.000
    O9       O        0.59452    0.91312    0.33368    1.000
    O10      O        0.65933    0.95939    0.28398    1.000
    O11      O        0.58769    0.97716    0.17862    1.000
    O12      O        0.73242    0.88403    0.32586    1.000
    H7       H        0.77187    0.89293    0.33973    1.000
    N4       N        0.54524    0.01962    0.07557    1.000
    N5       N        0.50605    0.00237    0.19859    1.000
    N6       N        0.50521    0.04842    0.08531    1.000
    C13      C        0.37208    0.92631    0.31120    1.000
    C14      C        0.43778    0.94432    0.29062    1.000
    C15      C        0.44520    0.96685    0.25529    1.000
    H8       H        0.41037    0.97273    0.24473    1.000
    C16      C        0.60636    0.94059    0.30267    1.000
    C17      C        0.54976    0.95160    0.28705    1.000
    C18      C        0.49039    0.93622    0.30629    1.000
    H9       H        0.48547    0.92033    0.32993    1.000
    C19      C        0.55655    0.97529    0.25121    1.000
    H10      H        0.59697    0.98713    0.23833    1.000
    C20      C        0.50370    0.98095    0.23513    1.000
    C21      C        0.54659    0.99696    0.17200    1.000
    C22      C        0.53604    0.01466    0.13559    1.000
    C23      C        0.50003    0.04536    0.12135    1.000
    H11      H        0.47567    0.06153    0.13493    1.000
    C24      C        0.56415    0.00039    0.10523    1.000
    H12      H        0.59217    0.98023    0.10583    1.000
    Zn5      Zn       0.41341    0.28656    0.62055    1.000
    Zn6      Zn       0.32708    0.22230    0.69063    1.000
    O13      O        0.99270    0.26447    0.62778    1.000
    O14      O        0.03533    0.23959    0.67684    1.000
    O15      O        0.26118    0.24646    0.66702    1.000
    O16      O        0.32599    0.29273    0.61732    1.000
    O17      O        0.25435    0.31050    0.51196    1.000
    O18      O        0.39908    0.21737    0.65920    1.000
    H13      H        0.43853    0.22627    0.67307    1.000
    N7       N        0.21190    0.35296    0.40891    1.000
    N8       N        0.17271    0.33571    0.53193    1.000
    N9       N        0.17187    0.38176    0.41865    1.000
    C25      C        0.03874    0.25965    0.64454    1.000
    C26      C        0.10444    0.27766    0.62396    1.000
    C27      C        0.11186    0.30019    0.58863    1.000
    H14      H        0.07703    0.30607    0.57807    1.000
    C28      C        0.27302    0.27393    0.63601    1.000
    C29      C        0.21642    0.28494    0.62039    1.000
    C30      C        0.15705    0.26956    0.63963    1.000
    H15      H        0.15213    0.25367    0.66327    1.000
    C31      C        0.22321    0.30863    0.58455    1.000
    H16      H        0.26363    0.32047    0.57167    1.000
    C32      C        0.17036    0.31429    0.56847    1.000
    C33      C        0.21325    0.33030    0.50534    1.000
    C34      C        0.20270    0.34800    0.46893    1.000
    C35      C        0.16669    0.37870    0.45469    1.000
    H17      H        0.14233    0.39487    0.46827    1.000
    C36      C        0.23081    0.33373    0.43857    1.000
    H18      H        0.25883    0.31357    0.43917    1.000
    Zn7      Zn       0.38010    0.46018    0.95389    1.000
    Zn8      Zn       0.44437    0.43812    0.02396    1.000
    O19      O        0.40220    0.06157    0.96111    1.000
    O20      O        0.42708    0.12908    0.01017    1.000
    O21      O        0.42021    0.34806    0.00035    1.000
    O22      O        0.37394    0.36660    0.95065    1.000
    O23      O        0.35617    0.27719    0.84529    1.000
    O24      O        0.44930    0.51505    0.99253    1.000
    H19      H        0.44040    0.54560    0.00640    1.000
    N10      N        0.31371    0.19228    0.74224    1.000
    N11      N        0.33096    0.17034    0.86526    1.000
    N12      N        0.28491    0.12345    0.75198    1.000
    C37      C        0.40702    0.11243    0.97787    1.000
    C38      C        0.38901    0.16012    0.95729    1.000
    C39      C        0.36648    0.14501    0.92196    1.000
    H20      H        0.36060    0.10430    0.91140    1.000
    C40      C        0.39274    0.33243    0.96934    1.000
    C41      C        0.38173    0.26482    0.95372    1.000
    C42      C        0.39711    0.22083    0.97296    1.000
    H21      H        0.41300    0.23180    0.99660    1.000
    C43      C        0.35804    0.24792    0.91788    1.000
    H22      H        0.34620    0.27650    0.90500    1.000
    C44      C        0.35238    0.18941    0.90180    1.000
    C45      C        0.33637    0.21629    0.83867    1.000
    C46      C        0.31867    0.18804    0.80226    1.000
    C47      C        0.28797    0.12133    0.78802    1.000
    H23      H        0.27180    0.08080    0.80160    1.000
    C48      C        0.33294    0.23042    0.77190    1.000
    H24      H        0.35310    0.27860    0.77250    1.000
    Zn9      Zn       0.04677    0.79351    0.28722    1.000
    Zn10     Zn       0.11104    0.77145    0.35730    1.000
    O25      O        0.06887    0.39490    0.29444    1.000
    O26      O        0.09375    0.46241    0.34350    1.000
    O27      O        0.08688    0.68139    0.33368    1.000
    O28      O        0.04061    0.69993    0.28398    1.000
    O29      O        0.02284    0.61052    0.17862    1.000
    O30      O        0.11597    0.84838    0.32586    1.000
    H25      H        0.10707    0.87893    0.33973    1.000
    N13      N        0.98038    0.52561    0.07557    1.000
    N14      N        0.99763    0.50367    0.19859    1.000
    N15      N        0.95158    0.45678    0.08531    1.000
    C49      C        0.07369    0.44576    0.31120    1.000
    C50      C        0.05568    0.49345    0.29062    1.000
    C51      C        0.03315    0.47834    0.25529    1.000
    H26      H        0.02727    0.43763    0.24473    1.000
    C52      C        0.05941    0.66576    0.30267    1.000
    C53      C        0.04840    0.59815    0.28705    1.000
    C54      C        0.06378    0.55416    0.30629    1.000
    H27      H        0.07967    0.56513    0.32993    1.000
    C55      C        0.02471    0.58125    0.25121    1.000
    H28      H        0.01287    0.60983    0.23833    1.000
    C56      C        0.01905    0.52274    0.23513    1.000
    C57      C        0.00304    0.54962    0.17200    1.000
    C58      C        0.98534    0.52137    0.13559    1.000
    C59      C        0.95464    0.45466    0.12135    1.000
    H29      H        0.93847    0.41413    0.13493    1.000
    C60      C        0.99961    0.56375    0.10523    1.000
    H30      H        0.01977    0.61193    0.10583    1.000
    Zn11     Zn       0.71344    0.12685    0.62055    1.000
    Zn12     Zn       0.77770    0.10479    0.69063    1.000
    O31      O        0.73553    0.72824    0.62778    1.000
    O32      O        0.76041    0.79575    0.67684    1.000
    O33      O        0.75354    0.01473    0.66702    1.000
    O34      O        0.70727    0.03327    0.61732    1.000
    O35      O        0.68950    0.94386    0.51196    1.000
    O36      O        0.78263    0.18172    0.65920    1.000
    H31      H        0.77373    0.21227    0.67307    1.000
    N16      N        0.64704    0.85895    0.40891    1.000
    N17      N        0.66429    0.83701    0.53193    1.000
    N18      N        0.61824    0.79012    0.41865    1.000
    C61      C        0.74035    0.77910    0.64454    1.000
    C62      C        0.72234    0.82679    0.62396    1.000
    C63      C        0.69981    0.81168    0.58863    1.000
    H32      H        0.69393    0.77097    0.57807    1.000
    C64      C        0.72607    0.99910    0.63601    1.000
    C65      C        0.71506    0.93149    0.62039    1.000
    C66      C        0.73044    0.88750    0.63963    1.000
    H33      H        0.74633    0.89847    0.66327    1.000
    C67      C        0.69137    0.91459    0.58455    1.000
    H34      H        0.67953    0.94317    0.57167    1.000
    C68      C        0.68571    0.85608    0.56847    1.000
    C69      C        0.66970    0.88296    0.50534    1.000
    C70      C        0.65200    0.85471    0.46893    1.000
    C71      C        0.62130    0.78800    0.45469    1.000
    H35      H        0.60513    0.74747    0.46827    1.000
    C72      C        0.66627    0.89709    0.43857    1.000
    H36      H        0.68643    0.94527    0.43917    1.000
    Zn13     Zn       0.53982    0.91993    0.95389    1.000
    Zn14     Zn       0.56188    0.00625    0.02396    1.000
    O37      O        0.93843    0.34063    0.96111    1.000
    O38      O        0.87092    0.29800    0.01017    1.000
    O39      O        0.65194    0.07215    0.00035    1.000
    O40      O        0.63340    0.00734    0.95065    1.000
    O41      O        0.72281    0.07898    0.84529    1.000
    O42      O        0.48495    0.93425    0.99253    1.000
    H37      H        0.45440    0.89480    0.00640    1.000
    N19      N        0.80772    0.12143    0.74224    1.000
    N20      N        0.82966    0.16062    0.86526    1.000
    N21      N        0.87655    0.16146    0.75198    1.000
    C73      C        0.88757    0.29459    0.97787    1.000
    C74      C        0.83988    0.22889    0.95729    1.000
    C75      C        0.85499    0.22147    0.92196    1.000
    H38      H        0.89570    0.25630    0.91140    1.000
    C76      C        0.66757    0.06031    0.96934    1.000
    C77      C        0.73518    0.11691    0.95372    1.000
    C78      C        0.77917    0.17628    0.97296    1.000
    H39      H        0.76820    0.18120    0.99660    1.000
    C79      C        0.75208    0.11012    0.91788    1.000
    H40      H        0.72350    0.06970    0.90500    1.000
    C80      C        0.81059    0.16297    0.90180    1.000
    C81      C        0.78371    0.12008    0.83867    1.000
    C82      C        0.81196    0.13063    0.80226    1.000
    C83      C        0.87867    0.16664    0.78802    1.000
    H41      H        0.91920    0.19100    0.80160    1.000
    C84      C        0.76958    0.10252    0.77190    1.000
    H42      H        0.72140    0.07450    0.77250    1.000
    Zn15     Zn       0.20649    0.25326    0.28722    1.000
    Zn16     Zn       0.22855    0.33959    0.35730    1.000
    O43      O        0.60510    0.67396    0.29444    1.000
    O44      O        0.53759    0.63133    0.34350    1.000
    O45      O        0.31861    0.40548    0.33368    1.000
    O46      O        0.30007    0.34067    0.28398    1.000
    O47      O        0.38948    0.41231    0.17862    1.000
    O48      O        0.15162    0.26758    0.32586    1.000
    H43      H        0.12107    0.22813    0.33973    1.000
    N22      N        0.47439    0.45476    0.07557    1.000
    N23      N        0.49633    0.49395    0.19859    1.000
    N24      N        0.54322    0.49479    0.08531    1.000
    C85      C        0.55424    0.62792    0.31120    1.000
    C86      C        0.50655    0.56222    0.29062    1.000
    C87      C        0.52166    0.55480    0.25529    1.000
    H44      H        0.56237    0.58963    0.24473    1.000
    C88      C        0.33424    0.39364    0.30267    1.000
    C89      C        0.40185    0.45024    0.28705    1.000
    C90      C        0.44584    0.50961    0.30629    1.000
    H45      H        0.43487    0.51453    0.32993    1.000
    C91      C        0.41875    0.44345    0.25121    1.000
    H46      H        0.39017    0.40303    0.23833    1.000
    C92      C        0.47726    0.49630    0.23513    1.000
    C93      C        0.45038    0.45341    0.17200    1.000
    C94      C        0.47863    0.46396    0.13559    1.000
    C95      C        0.54534    0.49997    0.12135    1.000
    H47      H        0.58587    0.52433    0.13493    1.000
    C96      C        0.43625    0.43585    0.10523    1.000
    H48      H        0.38807    0.40783    0.10583    1.000
    Zn17     Zn       0.87315    0.58659    0.62055    1.000
    Zn18     Zn       0.89521    0.67292    0.69063    1.000
    O49      O        0.27176    0.00730    0.62778    1.000
    O50      O        0.20425    0.96467    0.67684    1.000
    O51      O        0.98527    0.73882    0.66702    1.000
    O52      O        0.96673    0.67401    0.61732    1.000
    O53      O        0.05614    0.74565    0.51196    1.000
    O54      O        0.81828    0.60092    0.65920    1.000
    H49      H        0.78773    0.56147    0.67307    1.000
    N25      N        0.14105    0.78810    0.40891    1.000
    N26      N        0.16299    0.82729    0.53193    1.000
    N27      N        0.20988    0.82813    0.41865    1.000
    C97      C        0.22090    0.96126    0.64454    1.000
    C98      C        0.17321    0.89556    0.62396    1.000
    C99      C        0.18832    0.88814    0.58863    1.000
    H50      H        0.22903    0.92297    0.57807    1.000
    C100     C        0.00090    0.72698    0.63601    1.000
    C101     C        0.06851    0.78358    0.62039    1.000
    C102     C        0.11250    0.84295    0.63963    1.000
    H51      H        0.10153    0.84787    0.66327    1.000
    C103     C        0.08541    0.77679    0.58455    1.000
    H52      H        0.05683    0.73637    0.57167    1.000
    C104     C        0.14392    0.82964    0.56847    1.000
    C105     C        0.11704    0.78675    0.50534    1.000
    C106     C        0.14529    0.79730    0.46893    1.000
    C107     C        0.21200    0.83331    0.45469    1.000
    H53      H        0.25253    0.85767    0.46827    1.000
    C108     C        0.10291    0.76919    0.43857    1.000
    H54      H        0.05473    0.74117    0.43917    1.000
    Zn19     Zn       0.91993    0.38010    0.04611    1.000
    Zn20     Zn       0.00625    0.44437    0.97604    1.000
    O55      O        0.34063    0.40220    0.03889    1.000
    O56      O        0.29800    0.42708    0.98983    1.000
    O57      O        0.07215    0.42021    0.99965    1.000
    O58      O        0.00734    0.37394    0.04935    1.000
    O59      O        0.07898    0.35617    0.15471    1.000
    O60      O        0.93425    0.44930    0.00747    1.000
    H55      H        0.89480    0.44040    0.99360    1.000
    N28      N        0.12143    0.31371    0.25776    1.000
    N29      N        0.16062    0.33096    0.13474    1.000
    N30      N        0.16146    0.28491    0.24802    1.000
    C109     C        0.29459    0.40702    0.02213    1.000
    C110     C        0.22889    0.38901    0.04271    1.000
    C111     C        0.22147    0.36648    0.07804    1.000
    H56      H        0.25630    0.36060    0.08860    1.000
    C112     C        0.06031    0.39274    0.03066    1.000
    C113     C        0.11691    0.38173    0.04628    1.000
    C114     C        0.17628    0.39711    0.02704    1.000
    H57      H        0.18120    0.41300    0.00340    1.000
    C115     C        0.11012    0.35804    0.08212    1.000
    H58      H        0.06970    0.34620    0.09500    1.000
    C116     C        0.16297    0.35238    0.09820    1.000
    C117     C        0.12008    0.33637    0.16133    1.000
    C118     C        0.13063    0.31867    0.19774    1.000
    C119     C        0.16664    0.28797    0.21198    1.000
    H59      H        0.19100    0.27180    0.19840    1.000
    C120     C        0.10252    0.33294    0.22810    1.000
    H60      H        0.07450    0.35310    0.22750    1.000
    Zn21     Zn       0.58659    0.71344    0.37945    1.000
    Zn22     Zn       0.67292    0.77770    0.30937    1.000
    O61      O        0.00730    0.73553    0.37222    1.000
    O62      O        0.96467    0.76041    0.32316    1.000
    O63      O        0.73882    0.75354    0.33298    1.000
    O64      O        0.67401    0.70727    0.38268    1.000
    O65      O        0.74565    0.68950    0.48804    1.000
    O66      O        0.60092    0.78263    0.34080    1.000
    H61      H        0.56147    0.77373    0.32693    1.000
    N31      N        0.78810    0.64704    0.59109    1.000
    N32      N        0.82729    0.66429    0.46807    1.000
    N33      N        0.82813    0.61824    0.58135    1.000
    C121     C        0.96126    0.74035    0.35546    1.000
    C122     C        0.89556    0.72234    0.37604    1.000
    C123     C        0.88814    0.69981    0.41137    1.000
    H62      H        0.92297    0.69393    0.42193    1.000
    C124     C        0.72698    0.72607    0.36399    1.000
    C125     C        0.78358    0.71506    0.37961    1.000
    C126     C        0.84295    0.73044    0.36037    1.000
    H63      H        0.84787    0.74633    0.33673    1.000
    C127     C        0.77679    0.69137    0.41545    1.000
    H64      H        0.73637    0.67953    0.42833    1.000
    C128     C        0.82964    0.68571    0.43153    1.000
    C129     C        0.78675    0.66970    0.49466    1.000
    C130     C        0.79730    0.65200    0.53107    1.000
    C131     C        0.83331    0.62130    0.54531    1.000
    H65      H        0.85767    0.60513    0.53173    1.000
    C132     C        0.76919    0.66627    0.56143    1.000
    H66      H        0.74117    0.68643    0.56083    1.000
    Zn23     Zn       0.25326    0.04677    0.71278    1.000
    Zn24     Zn       0.33959    0.11104    0.64270    1.000
    O67      O        0.67396    0.06887    0.70556    1.000
    O68      O        0.63133    0.09375    0.65650    1.000
    O69      O        0.40548    0.08688    0.66632    1.000
    O70      O        0.34067    0.04061    0.71602    1.000
    O71      O        0.41231    0.02284    0.82138    1.000
    O72      O        0.26758    0.11597    0.67414    1.000
    H67      H        0.22813    0.10707    0.66027    1.000
    N34      N        0.45476    0.98038    0.92443    1.000
    N35      N        0.49395    0.99763    0.80141    1.000
    N36      N        0.49479    0.95158    0.91469    1.000
    C133     C        0.62792    0.07369    0.68880    1.000
    C134     C        0.56222    0.05568    0.70938    1.000
    C135     C        0.55480    0.03315    0.74471    1.000
    H68      H        0.58963    0.02727    0.75527    1.000
    C136     C        0.39364    0.05941    0.69733    1.000
    C137     C        0.45024    0.04840    0.71295    1.000
    C138     C        0.50961    0.06378    0.69371    1.000
    H69      H        0.51453    0.07967    0.67007    1.000
    C139     C        0.44345    0.02471    0.74879    1.000
    H70      H        0.40303    0.01287    0.76167    1.000
    C140     C        0.49630    0.01905    0.76487    1.000
    C141     C        0.45341    0.00304    0.82800    1.000
    C142     C        0.46396    0.98534    0.86441    1.000
    C143     C        0.49997    0.95464    0.87865    1.000
    H71      H        0.52433    0.93847    0.86507    1.000
    C144     C        0.43585    0.99961    0.89477    1.000
    H72      H        0.40783    0.01977    0.89417    1.000
    Zn25     Zn       0.61990    0.53982    0.04611    1.000
    Zn26     Zn       0.55563    0.56188    0.97604    1.000
    O73      O        0.59780    0.93843    0.03889    1.000
    O74      O        0.57292    0.87092    0.98983    1.000
    O75      O        0.57979    0.65194    0.99965    1.000
    O76      O        0.62606    0.63340    0.04935    1.000
    O77      O        0.64383    0.72281    0.15471    1.000
    O78      O        0.55070    0.48495    0.00747    1.000
    H73      H        0.55960    0.45440    0.99360    1.000
    N37      N        0.68629    0.80772    0.25776    1.000
    N38      N        0.66904    0.82966    0.13474    1.000
    N39      N        0.71509    0.87655    0.24802    1.000
    C145     C        0.59298    0.88757    0.02213    1.000
    C146     C        0.61099    0.83988    0.04271    1.000
    C147     C        0.63352    0.85499    0.07804    1.000
    H74      H        0.63940    0.89570    0.08860    1.000
    C148     C        0.60726    0.66757    0.03066    1.000
    C149     C        0.61827    0.73518    0.04628    1.000
    C150     C        0.60289    0.77917    0.02704    1.000
    H75      H        0.58700    0.76820    0.00340    1.000
    C151     C        0.64196    0.75208    0.08212    1.000
    H76      H        0.65380    0.72350    0.09500    1.000
    C152     C        0.64762    0.81059    0.09820    1.000
    C153     C        0.66363    0.78371    0.16133    1.000
    C154     C        0.68133    0.81196    0.19774    1.000
    C155     C        0.71203    0.87867    0.21198    1.000
    H77      H        0.72820    0.91920    0.19840    1.000
    C156     C        0.66706    0.76958    0.22810    1.000
    H78      H        0.64690    0.72140    0.22750    1.000
    Zn27     Zn       0.28656    0.87315    0.37945    1.000
    Zn28     Zn       0.22230    0.89521    0.30937    1.000
    O79      O        0.26447    0.27176    0.37222    1.000
    O80      O        0.23959    0.20425    0.32316    1.000
    O81      O        0.24646    0.98527    0.33298    1.000
    O82      O        0.29273    0.96673    0.38268    1.000
    O83      O        0.31050    0.05614    0.48804    1.000
    O84      O        0.21737    0.81828    0.34080    1.000
    H79      H        0.22627    0.78773    0.32693    1.000
    N40      N        0.35296    0.14105    0.59109    1.000
    N41      N        0.33571    0.16299    0.46807    1.000
    N42      N        0.38176    0.20988    0.58135    1.000
    C157     C        0.25965    0.22090    0.35546    1.000
    C158     C        0.27766    0.17321    0.37604    1.000
    C159     C        0.30019    0.18832    0.41137    1.000
    H80      H        0.30607    0.22903    0.42193    1.000
    C160     C        0.27393    0.00090    0.36399    1.000
    C161     C        0.28494    0.06851    0.37961    1.000
    C162     C        0.26956    0.11250    0.36037    1.000
    H81      H        0.25367    0.10153    0.33673    1.000
    C163     C        0.30863    0.08541    0.41545    1.000
    H82      H        0.32047    0.05683    0.42833    1.000
    C164     C        0.31429    0.14392    0.43153    1.000
    C165     C        0.33030    0.11704    0.49466    1.000
    C166     C        0.34800    0.14529    0.53107    1.000
    C167     C        0.37870    0.21200    0.54531    1.000
    H83      H        0.39487    0.25253    0.53173    1.000
    C168     C        0.33373    0.10291    0.56143    1.000
    H84      H        0.31357    0.05473    0.56083    1.000
    Zn29     Zn       0.95323    0.20649    0.71278    1.000
    Zn30     Zn       0.88896    0.22855    0.64270    1.000
    O85      O        0.93113    0.60510    0.70556    1.000
    O86      O        0.90625    0.53759    0.65650    1.000
    O87      O        0.91312    0.31861    0.66632    1.000
    O88      O        0.95939    0.30007    0.71602    1.000
    O89      O        0.97716    0.38948    0.82138    1.000
    O90      O        0.88403    0.15162    0.67414    1.000
    H85      H        0.89293    0.12107    0.66027    1.000
    N43      N        0.01962    0.47439    0.92443    1.000
    N44      N        0.00237    0.49633    0.80141    1.000
    N45      N        0.04842    0.54322    0.91469    1.000
    C169     C        0.92631    0.55424    0.68880    1.000
    C170     C        0.94432    0.50655    0.70938    1.000
    C171     C        0.96685    0.52166    0.74471    1.000
    H86      H        0.97273    0.56237    0.75527    1.000
    C172     C        0.94059    0.33424    0.69733    1.000
    C173     C        0.95160    0.40185    0.71295    1.000
    C174     C        0.93622    0.44584    0.69371    1.000
    H87      H        0.92033    0.43487    0.67007    1.000
    C175     C        0.97529    0.41875    0.74879    1.000
    H88      H        0.98713    0.39017    0.76167    1.000
    C176     C        0.98095    0.47726    0.76487    1.000
    C177     C        0.99696    0.45038    0.82800    1.000
    C178     C        0.01466    0.47863    0.86441    1.000
    C179     C        0.04536    0.54534    0.87865    1.000
    H89      H        0.06153    0.58587    0.86507    1.000
    C180     C        0.00039    0.43625    0.89477    1.000
    H90      H        0.98023    0.38807    0.89417    1.000
    Zn31     Zn       0.46018    0.08007    0.04611    1.000
    Zn32     Zn       0.43812    0.99375    0.97604    1.000
    O91      O        0.06157    0.65937    0.03889    1.000
    O92      O        0.12908    0.70200    0.98983    1.000
    O93      O        0.34806    0.92785    0.99965    1.000
    O94      O        0.36660    0.99266    0.04935    1.000
    O95      O        0.27719    0.92102    0.15471    1.000
    O96      O        0.51505    0.06575    0.00747    1.000
    H91      H        0.54560    0.10520    0.99360    1.000
    N46      N        0.19228    0.87857    0.25776    1.000
    N47      N        0.17034    0.83938    0.13474    1.000
    N48      N        0.12345    0.83854    0.24802    1.000
    C181     C        0.11243    0.70541    0.02213    1.000
    C182     C        0.16012    0.77111    0.04271    1.000
    C183     C        0.14501    0.77853    0.07804    1.000
    H92      H        0.10430    0.74370    0.08860    1.000
    C184     C        0.33243    0.93969    0.03066    1.000
    C185     C        0.26482    0.88309    0.04628    1.000
    C186     C        0.22083    0.82372    0.02704    1.000
    H93      H        0.23180    0.81880    0.00340    1.000
    C187     C        0.24792    0.88988    0.08212    1.000
    H94      H        0.27650    0.93030    0.09500    1.000
    C188     C        0.18941    0.83703    0.09820    1.000
    C189     C        0.21629    0.87992    0.16133    1.000
    C190     C        0.18804    0.86937    0.19774    1.000
    C191     C        0.12133    0.83336    0.21198    1.000
    H95      H        0.08080    0.80900    0.19840    1.000
    C192     C        0.23042    0.89748    0.22810    1.000
    H96      H        0.27860    0.92550    0.22750    1.000
    Zn33     Zn       0.12685    0.41341    0.37945    1.000
    Zn34     Zn       0.10479    0.32708    0.30937    1.000
    O97      O        0.72824    0.99270    0.37222    1.000
    O98      O        0.79575    0.03533    0.32316    1.000
    O99      O        0.01473    0.26118    0.33298    1.000
    O100     O        0.03327    0.32599    0.38268    1.000
    O101     O        0.94386    0.25435    0.48804    1.000
    O102     O        0.18172    0.39908    0.34080    1.000
    H97      H        0.21227    0.43853    0.32693    1.000
    N49      N        0.85895    0.21190    0.59109    1.000
    N50      N        0.83701    0.17271    0.46807    1.000
    N51      N        0.79012    0.17187    0.58135    1.000
    C193     C        0.77910    0.03874    0.35546    1.000
    C194     C        0.82679    0.10444    0.37604    1.000
    C195     C        0.81168    0.11186    0.41137    1.000
    H98      H        0.77097    0.07703    0.42193    1.000
    C196     C        0.99910    0.27302    0.36399    1.000
    C197     C        0.93149    0.21642    0.37961    1.000
    C198     C        0.88750    0.15705    0.36037    1.000
    H99      H        0.89847    0.15213    0.33673    1.000
    C199     C        0.91459    0.22321    0.41545    1.000
    H100     H        0.94317    0.26363    0.42833    1.000
    C200     C        0.85608    0.17036    0.43153    1.000
    C201     C        0.88296    0.21325    0.49466    1.000
    C202     C        0.85471    0.20270    0.53107    1.000
    C203     C        0.78800    0.16669    0.54531    1.000
    H101     H        0.74747    0.14233    0.53173    1.000
    C204     C        0.89709    0.23081    0.56143    1.000
    H102     H        0.94527    0.25883    0.56083    1.000
    Zn35     Zn       0.79351    0.74674    0.71278    1.000
    Zn36     Zn       0.77145    0.66041    0.64270    1.000
    O103     O        0.39490    0.32604    0.70556    1.000
    O104     O        0.46241    0.36867    0.65650    1.000
    O105     O        0.68139    0.59452    0.66632    1.000
    O106     O        0.69993    0.65933    0.71602    1.000
    O107     O        0.61052    0.58769    0.82138    1.000
    O108     O        0.84838    0.73242    0.67414    1.000
    H103     H        0.87893    0.77187    0.66027    1.000
    N52      N        0.52561    0.54524    0.92443    1.000
    N53      N        0.50367    0.50605    0.80141    1.000
    N54      N        0.45678    0.50521    0.91469    1.000
    C205     C        0.44576    0.37208    0.68880    1.000
    C206     C        0.49345    0.43778    0.70938    1.000
    C207     C        0.47834    0.44520    0.74471    1.000
    H104     H        0.43763    0.41037    0.75527    1.000
    C208     C        0.66576    0.60636    0.69733    1.000
    C209     C        0.59815    0.54976    0.71295    1.000
    C210     C        0.55416    0.49039    0.69371    1.000
    H105     H        0.56513    0.48547    0.67007    1.000
    C211     C        0.58125    0.55655    0.74879    1.000
    H106     H        0.60983    0.59697    0.76167    1.000
    C212     C        0.52274    0.50370    0.76487    1.000
    C213     C        0.54962    0.54659    0.82800    1.000
    C214     C        0.52137    0.53604    0.86441    1.000
    C215     C        0.45466    0.50003    0.87865    1.000
    H107     H        0.41413    0.47567    0.86507    1.000
    C216     C        0.56375    0.56415    0.89477    1.000
    H108     H        0.61193    0.59217    0.89417    1.000
