# CIF file generated by openbabel 3.1.0, see https://openbabel.org
data_I
_chemical_name_common 'image0'
_cell_length_a 9.243
_cell_length_b 8.817
_cell_length_c 9.684
_cell_angle_alpha 90
_cell_angle_beta 120.92
_cell_angle_gamma 90
_space_group_name_H-M_alt 'P 1'
_space_group_name_Hall 'P 1'
loop_
    _symmetry_equiv_pos_as_xyz
    x,y,z
loop_
    _atom_site_label
    _atom_site_type_symbol
    _atom_site_fract_x
    _atom_site_fract_y
    _atom_site_fract_z
    _atom_site_occupancy
    P1       P        0.25760    0.89830    0.92650    1.000
    P2       P        0.16740    0.66710    0.52720    1.000
    O1       O        0.13600    0.60100    0.65500    1.000
    O2       O        0.34600    0.74300    0.59000    1.000
    O3       O        0.15200    0.55200    0.39500    1.000
    O4       O        0.35600    0.94200    0.10400    1.000
    O5       O        0.13700    0.76800    0.89500    1.000
    O6       O        0.36900    0.88500    0.86100    1.000
    P3       P        0.74240    0.89830    0.57350    1.000
    P4       P        0.83260    0.66710    0.97280    1.000
    O7       O        0.86400    0.60100    0.84500    1.000
    O8       O        0.65400    0.74300    0.91000    1.000
    O9       O        0.84800    0.55200    0.10500    1.000
    O10      O        0.64400    0.94200    0.39600    1.000
    O11      O        0.86300    0.76800    0.60500    1.000
    O12      O        0.63100    0.88500    0.63900    1.000
    P5       P        0.74240    0.10170    0.07350    1.000
    P6       P        0.83260    0.33290    0.47280    1.000
    O13      O        0.86400    0.39900    0.34500    1.000
    O14      O        0.65400    0.25700    0.41000    1.000
    O15      O        0.84800    0.44800    0.60500    1.000
    O16      O        0.64400    0.05800    0.89600    1.000
    O17      O        0.86300    0.23200    0.10500    1.000
    O18      O        0.63100    0.11500    0.13900    1.000
    P7       P        0.25760    0.10170    0.42650    1.000
    P8       P        0.16740    0.33290    0.02720    1.000
    O19      O        0.13600    0.39900    0.15500    1.000
    O20      O        0.34600    0.25700    0.09000    1.000
    O21      O        0.15200    0.44800    0.89500    1.000
    O22      O        0.35600    0.05800    0.60400    1.000
    O23      O        0.13700    0.23200    0.39500    1.000
    O24      O        0.36900    0.11500    0.36100    1.000
    V1       V        0.00000    0.60730    0.75000    1.000
    V2       V        0.00000    0.39270    0.25000    1.000
    V3       V        0.50000    0.88960    0.75000    1.000
    V4       V        0.50000    0.11040    0.25000    1.000
