# CIF file generated by openbabel 3.1.0, see https://openbabel.org
data_I
_chemical_name_common 'image0'
_cell_length_a 9.9949
_cell_length_b 15.8229
_cell_length_c 18.1963
_cell_angle_alpha 90
_cell_angle_beta 90
_cell_angle_gamma 90
_space_group_name_H-M_alt 'P 1'
_space_group_name_Hall 'P 1'
loop_
    _symmetry_equiv_pos_as_xyz
    x,y,z
loop_
    _atom_site_label
    _atom_site_type_symbol
    _atom_site_fract_x
    _atom_site_fract_y
    _atom_site_fract_z
    _atom_site_occupancy
    Al1      Al       0.68470    0.03750    0.28230    1.000
    Al2      Al       0.83100    0.85010    0.32340    1.000
    Al3      Al       0.65770    0.00970    0.09400    1.000
    P1       P        0.85930    0.00930    0.42271    1.000
    P2       P        0.64580    0.18360    0.16993    1.000
    P3       P        0.88410    0.94270    0.18548    1.000
    F1       F        0.67870    0.92100    0.30720    1.000
    F2       F        0.60050    0.00390    0.19530    1.000
    O1       O        0.00460    0.04190    0.42740    1.000
    O2       O        0.79070    0.01910    0.49750    1.000
    O3       O        0.86370    0.91600    0.39980    1.000
    O4       O        0.78240    0.06360    0.36700    1.000
    O5       O        0.72920    0.26290    0.15490    1.000
    O6       O        0.68400    0.14850    0.24610    1.000
    O7       O        0.68310    0.12000    0.10780    1.000
    O8       O        0.49770    0.20740    0.16500    1.000
    O9       O        0.79780    0.94330    0.11520    1.000
    O10      O        0.85880    0.85720    0.22540    1.000
    O11      O        0.84660    0.01620    0.23510    1.000
    O12      O        0.03110    0.94820    0.16350    1.000
    Al4      Al       0.31530    0.46250    0.78230    1.000
    Al5      Al       0.16900    0.64990    0.82340    1.000
    Al6      Al       0.34230    0.49030    0.59400    1.000
    P4       P        0.14070    0.49070    0.92271    1.000
    P5       P        0.35420    0.31640    0.66993    1.000
    P6       P        0.11590    0.55730    0.68548    1.000
    F3       F        0.32130    0.57900    0.80720    1.000
    F4       F        0.39950    0.49610    0.69530    1.000
    O13      O        0.99540    0.45810    0.92740    1.000
    O14      O        0.20930    0.48090    0.99750    1.000
    O15      O        0.13630    0.58400    0.89980    1.000
    O16      O        0.21760    0.43640    0.86700    1.000
    O17      O        0.27080    0.23710    0.65490    1.000
    O18      O        0.31600    0.35150    0.74610    1.000
    O19      O        0.31690    0.38000    0.60780    1.000
    O20      O        0.50230    0.29260    0.66500    1.000
    O21      O        0.20220    0.55670    0.61520    1.000
    O22      O        0.14120    0.64280    0.72540    1.000
    O23      O        0.15340    0.48380    0.73510    1.000
    O24      O        0.96890    0.55180    0.66350    1.000
    Al7      Al       0.18470    0.96250    0.21770    1.000
    Al8      Al       0.33100    0.14990    0.17660    1.000
    Al9      Al       0.15770    0.99030    0.40600    1.000
    P7       P        0.35930    0.99070    0.07729    1.000
    P8       P        0.14580    0.81640    0.33007    1.000
    P9       P        0.38410    0.05730    0.31452    1.000
    F5       F        0.17870    0.07900    0.19280    1.000
    F6       F        0.10050    0.99610    0.30470    1.000
    O25      O        0.50460    0.95810    0.07260    1.000
    O26      O        0.29070    0.98090    0.00250    1.000
    O27      O        0.36370    0.08400    0.10020    1.000
    O28      O        0.28240    0.93640    0.13300    1.000
    O29      O        0.22920    0.73710    0.34510    1.000
    O30      O        0.18400    0.85150    0.25390    1.000
    O31      O        0.18310    0.88000    0.39220    1.000
    O32      O        0.99770    0.79260    0.33500    1.000
    O33      O        0.29780    0.05670    0.38480    1.000
    O34      O        0.35880    0.14280    0.27460    1.000
    O35      O        0.34660    0.98380    0.26490    1.000
    O36      O        0.53110    0.05180    0.33650    1.000
    Al10     Al       0.81530    0.53750    0.71770    1.000
    Al11     Al       0.66900    0.35010    0.67660    1.000
    Al12     Al       0.84230    0.50970    0.90600    1.000
    P10      P        0.64070    0.50930    0.57729    1.000
    P11      P        0.85420    0.68360    0.83007    1.000
    P12      P        0.61590    0.44270    0.81452    1.000
    F7       F        0.82130    0.42100    0.69280    1.000
    F8       F        0.89950    0.50390    0.80470    1.000
    O37      O        0.49540    0.54190    0.57260    1.000
    O38      O        0.70930    0.51910    0.50250    1.000
    O39      O        0.63630    0.41600    0.60020    1.000
    O40      O        0.71760    0.56360    0.63300    1.000
    O41      O        0.77080    0.76290    0.84510    1.000
    O42      O        0.81600    0.64850    0.75390    1.000
    O43      O        0.81690    0.62000    0.89220    1.000
    O44      O        0.00230    0.70740    0.83500    1.000
    O45      O        0.70220    0.44330    0.88480    1.000
    O46      O        0.64120    0.35720    0.77460    1.000
    O47      O        0.65340    0.51620    0.76490    1.000
    O48      O        0.46890    0.44820    0.83650    1.000
    Al13     Al       0.31530    0.96250    0.71770    1.000
    Al14     Al       0.16900    0.14990    0.67660    1.000
    Al15     Al       0.34230    0.99030    0.90600    1.000
    P13      P        0.14070    0.99070    0.57729    1.000
    P14      P        0.35420    0.81640    0.83007    1.000
    P15      P        0.11590    0.05730    0.81452    1.000
    F9       F        0.32130    0.07900    0.69280    1.000
    F10      F        0.39950    0.99610    0.80470    1.000
    O49      O        0.99540    0.95810    0.57260    1.000
    O50      O        0.20930    0.98090    0.50250    1.000
    O51      O        0.13630    0.08400    0.60020    1.000
    O52      O        0.21760    0.93640    0.63300    1.000
    O53      O        0.27080    0.73710    0.84510    1.000
    O54      O        0.31600    0.85150    0.75390    1.000
    O55      O        0.31690    0.88000    0.89220    1.000
    O56      O        0.50230    0.79260    0.83500    1.000
    O57      O        0.20220    0.05670    0.88480    1.000
    O58      O        0.14120    0.14280    0.77460    1.000
    O59      O        0.15340    0.98380    0.76490    1.000
    O60      O        0.96890    0.05180    0.83650    1.000
    Al16     Al       0.68470    0.53750    0.21770    1.000
    Al17     Al       0.83100    0.35010    0.17660    1.000
    Al18     Al       0.65770    0.50970    0.40600    1.000
    P16      P        0.85930    0.50930    0.07729    1.000
    P17      P        0.64580    0.68360    0.33007    1.000
    P18      P        0.88410    0.44270    0.31452    1.000
    F11      F        0.67870    0.42100    0.19280    1.000
    F12      F        0.60050    0.50390    0.30470    1.000
    O61      O        0.00460    0.54190    0.07260    1.000
    O62      O        0.79070    0.51910    0.00250    1.000
    O63      O        0.86370    0.41600    0.10020    1.000
    O64      O        0.78240    0.56360    0.13300    1.000
    O65      O        0.72920    0.76290    0.34510    1.000
    O66      O        0.68400    0.64850    0.25390    1.000
    O67      O        0.68310    0.62000    0.39220    1.000
    O68      O        0.49770    0.70740    0.33500    1.000
    O69      O        0.79780    0.44330    0.38480    1.000
    O70      O        0.85880    0.35720    0.27460    1.000
    O71      O        0.84660    0.51620    0.26490    1.000
    O72      O        0.03110    0.44820    0.33650    1.000
    Al19     Al       0.81530    0.03750    0.78230    1.000
    Al20     Al       0.66900    0.85010    0.82340    1.000
    Al21     Al       0.84230    0.00970    0.59400    1.000
    P19      P        0.64070    0.00930    0.92271    1.000
    P20      P        0.85420    0.18360    0.66993    1.000
    P21      P        0.61590    0.94270    0.68548    1.000
    F13      F        0.82130    0.92100    0.80720    1.000
    F14      F        0.89950    0.00390    0.69530    1.000
    O73      O        0.49540    0.04190    0.92740    1.000
    O74      O        0.70930    0.01910    0.99750    1.000
    O75      O        0.63630    0.91600    0.89980    1.000
    O76      O        0.71760    0.06360    0.86700    1.000
    O77      O        0.77080    0.26290    0.65490    1.000
    O78      O        0.81600    0.14850    0.74610    1.000
    O79      O        0.81690    0.12000    0.60780    1.000
    O80      O        0.00230    0.20740    0.66500    1.000
    O81      O        0.70220    0.94330    0.61520    1.000
    O82      O        0.64120    0.85720    0.72540    1.000
    O83      O        0.65340    0.01620    0.73510    1.000
    O84      O        0.46890    0.94820    0.66350    1.000
    Al22     Al       0.18470    0.46250    0.28230    1.000
    Al23     Al       0.33100    0.64990    0.32340    1.000
    Al24     Al       0.15770    0.49030    0.09400    1.000
    P22      P        0.35930    0.49070    0.42271    1.000
    P23      P        0.14580    0.31640    0.16993    1.000
    P24      P        0.38410    0.55730    0.18548    1.000
    F15      F        0.17870    0.57900    0.30720    1.000
    F16      F        0.10050    0.49610    0.19530    1.000
    O85      O        0.50460    0.45810    0.42740    1.000
    O86      O        0.29070    0.48090    0.49750    1.000
    O87      O        0.36370    0.58400    0.39980    1.000
    O88      O        0.28240    0.43640    0.36700    1.000
    O89      O        0.22920    0.23710    0.15490    1.000
    O90      O        0.18400    0.35150    0.24610    1.000
    O91      O        0.18310    0.38000    0.10780    1.000
    O92      O        0.99770    0.29260    0.16500    1.000
    O93      O        0.29780    0.55670    0.11520    1.000
    O94      O        0.35880    0.64280    0.22540    1.000
    O95      O        0.34660    0.48380    0.23510    1.000
    O96      O        0.53110    0.55180    0.16350    1.000
