# CIF file generated by openbabel 3.1.0, see https://openbabel.org
data_I
_chemical_name_common 'image0'
_cell_length_a 11.237
_cell_length_b 20.8524
_cell_length_c 14.6189
_cell_angle_alpha 90
_cell_angle_beta 104.997
_cell_angle_gamma 90
_space_group_name_H-M_alt 'P 1'
_space_group_name_Hall 'P 1'
loop_
    _symmetry_equiv_pos_as_xyz
    x,y,z
loop_
    _atom_site_label
    _atom_site_type_symbol
    _atom_site_fract_x
    _atom_site_fract_y
    _atom_site_fract_z
    _atom_site_occupancy
    U1       U        0.77642    0.22493    0.56040    1.000
    U2       U        0.92326    0.41885    0.53737    1.000
    U3       U        0.37319    0.48573    0.87337    1.000
    P1       P        0.20307    0.44779    0.62910    1.000
    P2       P        0.60175    0.11600    0.38697    1.000
    P3       P        0.61692    0.36436    0.42618    1.000
    P4       P        0.12499    0.94642    0.37525    1.000
    F1       F        0.86430    0.32712    0.59540    1.000
    O1       O        0.10770    0.48825    0.55750    1.000
    O2       O        0.12620    0.38971    0.64480    1.000
    O3       O        0.26380    0.48397    0.71780    1.000
    O4       O        0.71970    0.41252    0.45430    1.000
    O5       O        0.65460    0.29614    0.45090    1.000
    O6       O        0.55930    0.36619    0.31570    1.000
    O7       O        0.70450    0.06901    0.39070    1.000
    O8       O        0.61900    0.16091    0.47010    1.000
    O9       O        0.58250    0.15806    0.29440    1.000
    O10      O        0.01350    0.96115    0.29080    1.000
    O11      O        0.07700    0.96925    0.46040    1.000
    O12      O        0.16500    0.87749    0.37860    1.000
    C1       C        0.31890    0.42350    0.57200    1.000
    C2       C        0.44190    0.43610    0.61350    1.000
    H1       H        0.46530    0.45720    0.67310    1.000
    C3       C        0.53080    0.41810    0.56860    1.000
    H2       H        0.61510    0.42630    0.59830    1.000
    C4       C        0.49870    0.38820    0.48070    1.000
    C5       C        0.37350    0.37630    0.43880    1.000
    H3       H        0.34940    0.35600    0.37860    1.000
    C6       C        0.28530    0.39380    0.48390    1.000
    H4       H        0.20090    0.38550    0.45470    1.000
    C7       C        0.46450    0.06990    0.37720    1.000
    C8       C        0.35300    0.09850    0.37820    1.000
    H5       H        0.34830    0.14390    0.38140    1.000
    C9       C        0.24860    0.06200    0.37460    1.000
    H6       H        0.17290    0.08240    0.37430    1.000
    C10      C        0.25510    0.99540    0.37140    1.000
    C11      C        0.36570    0.96680    0.37120    1.000
    H7       H        0.37090    0.92140    0.36920    1.000
    C12      C        0.46970    0.00370    0.37410    1.000
    H8       H        0.54510    0.98310    0.37390    1.000
    U4       U        0.72358    0.72493    0.93960    1.000
    U5       U        0.57674    0.91885    0.96263    1.000
    U6       U        0.12681    0.98573    0.62663    1.000
    P5       P        0.29693    0.94779    0.87090    1.000
    P6       P        0.89825    0.61600    0.11303    1.000
    P7       P        0.88308    0.86436    0.07382    1.000
    P8       P        0.37501    0.44642    0.12475    1.000
    F2       F        0.63570    0.82712    0.90460    1.000
    O13      O        0.39230    0.98825    0.94250    1.000
    O14      O        0.37380    0.88971    0.85520    1.000
    O15      O        0.23620    0.98397    0.78220    1.000
    O16      O        0.78030    0.91252    0.04570    1.000
    O17      O        0.84540    0.79614    0.04910    1.000
    O18      O        0.94070    0.86619    0.18430    1.000
    O19      O        0.79550    0.56901    0.10930    1.000
    O20      O        0.88100    0.66091    0.02990    1.000
    O21      O        0.91750    0.65806    0.20560    1.000
    O22      O        0.48650    0.46115    0.20920    1.000
    O23      O        0.42300    0.46925    0.03960    1.000
    O24      O        0.33500    0.37749    0.12140    1.000
    C13      C        0.18110    0.92350    0.92800    1.000
    C14      C        0.05810    0.93610    0.88650    1.000
    H9       H        0.03470    0.95720    0.82690    1.000
    C15      C        0.96920    0.91810    0.93140    1.000
    H10      H        0.88490    0.92630    0.90170    1.000
    C16      C        0.00130    0.88820    0.01930    1.000
    C17      C        0.12650    0.87630    0.06120    1.000
    H11      H        0.15060    0.85600    0.12140    1.000
    C18      C        0.21470    0.89380    0.01610    1.000
    H12      H        0.29910    0.88550    0.04530    1.000
    C19      C        0.03550    0.56990    0.12280    1.000
    C20      C        0.14700    0.59850    0.12180    1.000
    H13      H        0.15170    0.64390    0.11860    1.000
    C21      C        0.25140    0.56200    0.12540    1.000
    H14      H        0.32710    0.58240    0.12570    1.000
    C22      C        0.24490    0.49540    0.12860    1.000
    C23      C        0.13430    0.46680    0.12880    1.000
    H15      H        0.12910    0.42140    0.13080    1.000
    C24      C        0.03030    0.50370    0.12590    1.000
    H16      H        0.95490    0.48310    0.12610    1.000
    U7       U        0.22358    0.77507    0.43960    1.000
    U8       U        0.07674    0.58115    0.46263    1.000
    U9       U        0.62681    0.51427    0.12663    1.000
    P9       P        0.79693    0.55221    0.37090    1.000
    P10      P        0.39825    0.88400    0.61303    1.000
    P11      P        0.38308    0.63564    0.57382    1.000
    P12      P        0.87501    0.05358    0.62475    1.000
    F3       F        0.13570    0.67288    0.40460    1.000
    O25      O        0.89230    0.51175    0.44250    1.000
    O26      O        0.87380    0.61029    0.35520    1.000
    O27      O        0.73620    0.51603    0.28220    1.000
    O28      O        0.28030    0.58748    0.54570    1.000
    O29      O        0.34540    0.70386    0.54910    1.000
    O30      O        0.44070    0.63381    0.68430    1.000
    O31      O        0.29550    0.93099    0.60930    1.000
    O32      O        0.38100    0.83909    0.52990    1.000
    O33      O        0.41750    0.84194    0.70560    1.000
    O34      O        0.98650    0.03885    0.70920    1.000
    O35      O        0.92300    0.03075    0.53960    1.000
    O36      O        0.83500    0.12251    0.62140    1.000
    C25      C        0.68110    0.57650    0.42800    1.000
    C26      C        0.55810    0.56390    0.38650    1.000
    H17      H        0.53470    0.54280    0.32690    1.000
    C27      C        0.46920    0.58190    0.43140    1.000
    H18      H        0.38490    0.57370    0.40170    1.000
    C28      C        0.50130    0.61180    0.51930    1.000
    C29      C        0.62650    0.62370    0.56120    1.000
    H19      H        0.65060    0.64400    0.62140    1.000
    C30      C        0.71470    0.60620    0.51610    1.000
    H20      H        0.79910    0.61450    0.54530    1.000
    C31      C        0.53550    0.93010    0.62280    1.000
    C32      C        0.64700    0.90150    0.62180    1.000
    H21      H        0.65170    0.85610    0.61860    1.000
    C33      C        0.75140    0.93800    0.62540    1.000
    H22      H        0.82710    0.91760    0.62570    1.000
    C34      C        0.74490    0.00460    0.62860    1.000
    C35      C        0.63430    0.03320    0.62880    1.000
    H23      H        0.62910    0.07860    0.63080    1.000
    C36      C        0.53030    0.99630    0.62590    1.000
    H24      H        0.45490    0.01690    0.62610    1.000
    U10      U        0.27642    0.27507    0.06040    1.000
    U11      U        0.42326    0.08115    0.03737    1.000
    U12      U        0.87319    0.01427    0.37337    1.000
    P13      P        0.70307    0.05221    0.12910    1.000
    P14      P        0.10175    0.38400    0.88697    1.000
    P15      P        0.11692    0.13564    0.92618    1.000
    P16      P        0.62499    0.55358    0.87525    1.000
    F4       F        0.36430    0.17288    0.09540    1.000
    O37      O        0.60770    0.01175    0.05750    1.000
    O38      O        0.62620    0.11029    0.14480    1.000
    O39      O        0.76380    0.01603    0.21780    1.000
    O40      O        0.21970    0.08748    0.95430    1.000
    O41      O        0.15460    0.20386    0.95090    1.000
    O42      O        0.05930    0.13381    0.81570    1.000
    O43      O        0.20450    0.43099    0.89070    1.000
    O44      O        0.11900    0.33909    0.97010    1.000
    O45      O        0.08250    0.34194    0.79440    1.000
    O46      O        0.51350    0.53885    0.79080    1.000
    O47      O        0.57700    0.53075    0.96040    1.000
    O48      O        0.66500    0.62251    0.87860    1.000
    C37      C        0.81890    0.07650    0.07200    1.000
    C38      C        0.94190    0.06390    0.11350    1.000
    H25      H        0.96530    0.04280    0.17310    1.000
    C39      C        0.03080    0.08190    0.06860    1.000
    H26      H        0.11510    0.07370    0.09830    1.000
    C40      C        0.99870    0.11180    0.98070    1.000
    C41      C        0.87350    0.12370    0.93880    1.000
    H27      H        0.84940    0.14400    0.87860    1.000
    C42      C        0.78530    0.10620    0.98390    1.000
    H28      H        0.70090    0.11450    0.95470    1.000
    C43      C        0.96450    0.43010    0.87720    1.000
    C44      C        0.85300    0.40150    0.87820    1.000
    H29      H        0.84830    0.35610    0.88140    1.000
    C45      C        0.74860    0.43800    0.87460    1.000
    H30      H        0.67290    0.41760    0.87430    1.000
    C46      C        0.75510    0.50460    0.87140    1.000
    C47      C        0.86570    0.53320    0.87120    1.000
    H31      H        0.87090    0.57860    0.86920    1.000
    C48      C        0.96970    0.49630    0.87410    1.000
    H32      H        0.04510    0.51690    0.87390    1.000
