# CIF file generated by openbabel 3.1.0, see https://openbabel.org
data_I
_chemical_name_common 'image0'
_cell_length_a 21.9544
_cell_length_b 23.8914
_cell_length_c 17.0398
_cell_angle_alpha 90
_cell_angle_beta 106.568
_cell_angle_gamma 90
_space_group_name_H-M_alt 'P 1'
_space_group_name_Hall 'P 1'
loop_
    _symmetry_equiv_pos_as_xyz
    x,y,z
loop_
    _atom_site_label
    _atom_site_type_symbol
    _atom_site_fract_x
    _atom_site_fract_y
    _atom_site_fract_z
    _atom_site_occupancy
    Zn1      Zn       0.31152    0.01769    0.04588    1.000
    Zn2      Zn       0.01786    0.00010    0.27939    1.000
    Zn3      Zn       0.63572    0.49987    0.89623    1.000
    S1       S        0.54050    0.63144    0.25499    1.000
    S2       S        0.96044    0.77586    0.26129    1.000
    S3       S        0.79391    0.61293    0.08306    1.000
    S4       S        0.37521    0.78983    0.06374    1.000
    O1       O        0.35960    0.95140    0.09020    1.000
    N1       N        0.04434    0.01958    0.40030    1.000
    N2       N        0.29206    0.03500    0.92410    1.000
    O2       O        0.63939    0.57279    0.37957    1.000
    O3       O        0.64368    0.62462    0.89140    1.000
    O4       O        0.69052    0.55259    0.96850    1.000
    N3       N        0.10712    0.98795    0.26320    1.000
    N4       N        0.54314    0.99129    0.40150    1.000
    O5       O        0.30792    0.89175    0.99210    1.000
    O6       O        0.69608    0.64726    0.43710    1.000
    N5       N        0.21761    0.00896    0.04050    1.000
    O7       O        0.96727    0.93722    0.22660    1.000
    C1       C        0.88010    0.69166    0.17460    1.000
    C2       C        0.54358    0.73956    0.27200    1.000
    O8       O        0.02321    0.88282    0.32830    1.000
    C3       C        0.51230    0.94300    0.38320    1.000
    C4       C        0.10048    0.05097    0.56250    1.000
    N6       N        0.61269    0.50086    0.77240    1.000
    C5       C        0.39160    0.85781    0.09940    1.000
    C6       C        0.07180    0.98240    0.45730    1.000
    H1       H        0.07190    0.94490    0.44220    1.000
    C7       C        0.47180    0.80798    0.19200    1.000
    C8       C        0.86120    0.79079    0.13500    1.000
    C9       C        0.52490    0.79527    0.25590    1.000
    H2       H        0.54800    0.82380    0.28820    1.000
    C10      C        0.50840    0.69689    0.22200    1.000
    C11      C        0.34930    0.90309    0.05600    1.000
    C12      C        0.14190    0.94330    0.29410    1.000
    C13      C        0.45620    0.70838    0.15590    1.000
    C14      C        0.98070    0.89090    0.26400    1.000
    C15      C        0.43880    0.76387    0.14230    1.000
    C16      C        0.23510    0.98140    0.26740    1.000
    C17      C        0.78980    0.72078    0.05920    1.000
    C18      C        0.23864    0.05582    0.75650    1.000
    C19      C        0.13360    0.06550    0.65000    1.000
    C20      C        0.24480    0.00285    0.78780    1.000
    H3       H        0.23120    0.97260    0.75280    1.000
    C21      C        0.68499    0.60444    0.94950    1.000
    C22      C        0.26130    0.09845    0.81150    1.000
    H4       H        0.25870    0.13530    0.79340    1.000
    C23      C        0.89629    0.74781    0.18620    1.000
    C24      C        0.41270    0.98450    0.38120    1.000
    C25      C        0.20641    0.06509    0.66700    1.000
    H5       H        0.21850    0.03560    0.63530    1.000
    H6       H        0.22020    0.10050    0.65010    1.000
    C26      C        0.94110    0.84325    0.22390    1.000
    C27      C        0.28780    0.08663    0.89370    1.000
    H7       H        0.30330    0.11610    0.92940    1.000
    C28      C        0.20510    0.93840    0.29660    1.000
    H8       H        0.22760    0.90620    0.31780    1.000
    C29      C        0.06970    0.08950    0.50500    1.000
    H9       H        0.06700    0.12670    0.51970    1.000
    C30      C        0.73320    0.64135    0.00370    1.000
    C31      C        0.13540    0.02874    0.23190    1.000
    H10      H        0.11150    0.05970    0.20810    1.000
    C32      C        0.44290    0.86180    0.16560    1.000
    C33      C        0.64950    0.62517    0.38820    1.000
    C34      C        0.60110    0.66132    0.33220    1.000
    C35      C        0.19850    0.02640    0.23380    1.000
    H11      H        0.21640    0.05570    0.21190    1.000
    C36      C        0.18090    0.05420    0.03050    1.000
    H12      H        0.20000    0.08920    0.03960    1.000
    C37      C        0.04260    0.07250    0.42490    1.000
    C38      C        0.44540    0.03440    0.40160    1.000
    H13      H        0.42380    0.06660    0.40860    1.000
    C39      C        0.80800    0.77680    0.07180    1.000
    H14      H        0.78450    0.80450    0.03800    1.000
    C40      C        0.82660    0.67873    0.11080    1.000
    C41      C        0.34210    0.98150    0.36690    1.000
    H15      H        0.33210    0.94840    0.39390    1.000
    H16      H        0.32840    0.01390    0.39160    1.000
    C42      C        0.88870    0.84487    0.15930    1.000
    H17      H        0.87190    0.87790    0.13300    1.000
    C43      C        0.73760    0.69735    0.99920    1.000
    C44      C        0.50960    0.03642    0.41140    1.000
    H18      H        0.53060    0.07030    0.42540    1.000
    C45      C        0.44770    0.93750    0.37250    1.000
    H19      H        0.42800    0.90290    0.35970    1.000
    C46      C        0.27080    0.99355    0.87030    1.000
    H20      H        0.27380    0.95690    0.88960    1.000
    C47      C        0.10010    0.99650    0.53710    1.000
    H21      H        0.11930    0.96900    0.57450    1.000
    C48      C        0.59640    0.71741    0.33360    1.000
    H22      H        0.62500    0.73980    0.37140    1.000
    C49      C        0.18900    0.95840    0.02930    1.000
    H23      H        0.21390    0.92630    0.03790    1.000
    C50      C        0.30560    0.97930    0.27750    1.000
    H24      H        0.31760    0.01080    0.24920    1.000
    H25      H        0.31590    0.94510    0.25340    1.000
    C51      C        0.57820    0.44870    0.64880    1.000
    H26      H        0.57150    0.41390    0.62340    1.000
    C52      C        0.12390    0.95310    0.00570    1.000
    H27      H        0.10560    0.91760    0.99830    1.000
    C53      C        0.01310    0.99580    0.96510    1.000
    H28      H        0.00040    0.95930    0.94100    1.000
    H29      H        0.99610    0.02400    0.92370    1.000
    C54      C        0.59900    0.54750    0.72800    1.000
    C55      C        0.57480    0.54740    0.64440    1.000
    H30      H        0.56570    0.58100    0.61590    1.000
    C56      C        0.56410    0.49730    0.60260    1.000
    C57      C        0.60210    0.45240    0.73220    1.000
    C58      C        0.11520    0.05100    0.00700    1.000
    H31      H        0.09110    0.08360    0.00070    1.000
    C59      C        0.53630    0.49650    0.51150    1.000
    H32      H        0.54660    0.46140    0.48980    1.000
    H33      H        0.55450    0.52670    0.48740    1.000
    C60      C        0.08570    0.99960    0.99280    1.000
    H34      H        0.12200    0.09620    0.66500    1.000
    H35      H        0.71220    0.71360    0.96700    1.000
    H36      H        0.46190    0.89650    0.19000    1.000
    H37      H        0.53700    0.91800    0.38400    1.000
    H38      H        0.12400    0.03300    0.69400    1.000
    H39      H        0.43400    0.67600    0.11600    1.000
    H40      H        0.90300    0.66800    0.21700    1.000
    H41      H        0.11700    0.91200    0.31900    1.000
    H42      H        0.60700    0.58200    0.76500    1.000
    H43      H        0.02700    0.10270    0.39000    1.000
    H44      H        0.61700    0.41600    0.76600    1.000
    S5       S        0.17297    0.86065    0.52602    1.000
    S6       S        0.04667    0.67055    0.37182    1.000
    O9       O        0.00811    0.57027    0.28304    1.000
    O10      O        0.34431    0.92317    0.55792    1.000
    O11      O        0.09007    0.55335    0.23460    1.000
    O12      O        0.26207    0.94487    0.60380    1.000
    C61      C        0.28770    0.91473    0.56390    1.000
    C62      C        0.09620    0.63035    0.32230    1.000
    C63      C        0.06360    0.58123    0.27660    1.000
    C64      C        0.25290    0.86623    0.51810    1.000
    C65      C        0.22440    0.78240    0.44450    1.000
    C66      C        0.17080    0.79860    0.46320    1.000
    C67      C        0.17020    0.69970    0.37980    1.000
    C68      C        0.11560    0.71710    0.39980    1.000
    C69      C        0.11410    0.76610    0.44240    1.000
    H45      H        0.07810    0.77710    0.45660    1.000
    C70      C        0.22770    0.73220    0.40040    1.000
    H46      H        0.26390    0.72140    0.38630    1.000
    Zn4      Zn       0.68848    0.51769    0.45412    1.000
    Zn5      Zn       0.98214    0.50010    0.22061    1.000
    Zn6      Zn       0.36428    0.99987    0.60377    1.000
    S7       S        0.45950    0.13144    0.24501    1.000
    S8       S        0.03956    0.27586    0.23871    1.000
    S9       S        0.20609    0.11293    0.41694    1.000
    S10      S        0.62479    0.28983    0.43626    1.000
    O13      O        0.64040    0.45140    0.40980    1.000
    N7       N        0.95566    0.51958    0.09970    1.000
    N8       N        0.70794    0.53500    0.57590    1.000
    O14      O        0.36061    0.07279    0.12043    1.000
    O15      O        0.35632    0.12462    0.60860    1.000
    O16      O        0.30948    0.05259    0.53150    1.000
    N9       N        0.89288    0.48795    0.23680    1.000
    N10      N        0.45686    0.49129    0.09850    1.000
    O17      O        0.69208    0.39175    0.50790    1.000
    O18      O        0.30392    0.14726    0.06290    1.000
    N11      N        0.78239    0.50896    0.45950    1.000
    O19      O        0.03273    0.43722    0.27340    1.000
    C71      C        0.11990    0.19166    0.32540    1.000
    C72      C        0.45642    0.23956    0.22800    1.000
    O20      O        0.97679    0.38282    0.17170    1.000
    C73      C        0.48770    0.44300    0.11680    1.000
    C74      C        0.89952    0.55097    0.93750    1.000
    N12      N        0.38731    0.00086    0.72760    1.000
    C75      C        0.60840    0.35781    0.40060    1.000
    C76      C        0.92820    0.48240    0.04270    1.000
    H47      H        0.92810    0.44490    0.05780    1.000
    C77      C        0.52820    0.30798    0.30800    1.000
    C78      C        0.13880    0.29079    0.36500    1.000
    C79      C        0.47510    0.29527    0.24410    1.000
    H48      H        0.45200    0.32380    0.21180    1.000
    C80      C        0.49160    0.19689    0.27800    1.000
    C81      C        0.65070    0.40309    0.44400    1.000
    C82      C        0.85810    0.44330    0.20590    1.000
    C83      C        0.54380    0.20838    0.34410    1.000
    C84      C        0.01930    0.39090    0.23600    1.000
    C85      C        0.56120    0.26387    0.35770    1.000
    C86      C        0.76490    0.48140    0.23260    1.000
    C87      C        0.21020    0.22078    0.44080    1.000
    C88      C        0.76136    0.55582    0.74350    1.000
    C89      C        0.86640    0.56550    0.85000    1.000
    C90      C        0.75520    0.50285    0.71220    1.000
    H49      H        0.76880    0.47260    0.74720    1.000
    C91      C        0.31501    0.10444    0.55050    1.000
    C92      C        0.73870    0.59845    0.68850    1.000
    H50      H        0.74130    0.63530    0.70660    1.000
    C93      C        0.10371    0.24781    0.31380    1.000
    C94      C        0.58730    0.48450    0.11880    1.000
    C95      C        0.79359    0.56509    0.83300    1.000
    H51      H        0.78150    0.53560    0.86470    1.000
    H52      H        0.77980    0.60050    0.84990    1.000
    C96      C        0.05890    0.34325    0.27610    1.000
    C97      C        0.71220    0.58663    0.60630    1.000
    H53      H        0.69670    0.61610    0.57060    1.000
    C98      C        0.79490    0.43840    0.20340    1.000
    H54      H        0.77240    0.40620    0.18220    1.000
    C99      C        0.93030    0.58950    0.99500    1.000
    H55      H        0.93300    0.62670    0.98030    1.000
    C100     C        0.26680    0.14135    0.49630    1.000
    C101     C        0.86460    0.52874    0.26810    1.000
    H56      H        0.88850    0.55970    0.29190    1.000
    C102     C        0.55710    0.36180    0.33440    1.000
    C103     C        0.35050    0.12517    0.11180    1.000
    C104     C        0.39890    0.16132    0.16780    1.000
    C105     C        0.80150    0.52640    0.26620    1.000
    H57      H        0.78360    0.55570    0.28810    1.000
    C106     C        0.81910    0.55420    0.46950    1.000
    H58      H        0.80000    0.58920    0.46040    1.000
    C107     C        0.95740    0.57250    0.07510    1.000
    C108     C        0.55460    0.53440    0.09840    1.000
    H59      H        0.57620    0.56660    0.09140    1.000
    C109     C        0.19200    0.27680    0.42820    1.000
    H60      H        0.21550    0.30450    0.46200    1.000
    C110     C        0.17340    0.17873    0.38920    1.000
    C111     C        0.65790    0.48150    0.13310    1.000
    H61      H        0.66790    0.44840    0.10610    1.000
    H62      H        0.67160    0.51390    0.10840    1.000
    C112     C        0.11130    0.34487    0.34070    1.000
    H63      H        0.12810    0.37790    0.36700    1.000
    C113     C        0.26240    0.19735    0.50080    1.000
    C114     C        0.49040    0.53642    0.08860    1.000
    H64      H        0.46940    0.57030    0.07460    1.000
    C115     C        0.55230    0.43750    0.12750    1.000
    H65      H        0.57200    0.40290    0.14030    1.000
    C116     C        0.72920    0.49355    0.62970    1.000
    H66      H        0.72620    0.45690    0.61040    1.000
    C117     C        0.89990    0.49650    0.96290    1.000
    H67      H        0.88070    0.46900    0.92550    1.000
    C118     C        0.40360    0.21741    0.16640    1.000
    H68      H        0.37500    0.23980    0.12860    1.000
    C119     C        0.81100    0.45840    0.47070    1.000
    H69      H        0.78610    0.42630    0.46210    1.000
    C120     C        0.69440    0.47930    0.22250    1.000
    H70      H        0.68240    0.51080    0.25080    1.000
    H71      H        0.68410    0.44510    0.24660    1.000
    C121     C        0.42180    0.94870    0.85120    1.000
    H72      H        0.42850    0.91390    0.87660    1.000
    C122     C        0.87610    0.45310    0.49430    1.000
    H73      H        0.89440    0.41760    0.50170    1.000
    C123     C        0.98690    0.49580    0.53490    1.000
    H74      H        0.99960    0.45930    0.55900    1.000
    H75      H        0.00390    0.52400    0.57630    1.000
    C124     C        0.40100    0.04750    0.77200    1.000
    C125     C        0.42520    0.04740    0.85560    1.000
    H76      H        0.43430    0.08100    0.88410    1.000
    C126     C        0.43590    0.99730    0.89740    1.000
    C127     C        0.39790    0.95240    0.76780    1.000
    C128     C        0.88480    0.55100    0.49300    1.000
    H77      H        0.90890    0.58360    0.49930    1.000
    C129     C        0.46370    0.99650    0.98850    1.000
    H78      H        0.45340    0.96140    0.01020    1.000
    H79      H        0.44550    0.02670    0.01260    1.000
    C130     C        0.91430    0.49960    0.50720    1.000
    H80      H        0.87800    0.59620    0.83500    1.000
    H81      H        0.28780    0.21360    0.53300    1.000
    H82      H        0.53810    0.39650    0.31000    1.000
    H83      H        0.46300    0.41800    0.11600    1.000
    H84      H        0.87600    0.53300    0.80600    1.000
    H85      H        0.56600    0.17600    0.38400    1.000
    H86      H        0.09700    0.16800    0.28300    1.000
    H87      H        0.88300    0.41200    0.18100    1.000
    H88      H        0.39300    0.08200    0.73500    1.000
    H89      H        0.97300    0.60270    0.11000    1.000
    H90      H        0.38300    0.91600    0.73400    1.000
    Zn7      Zn       0.68848    0.98231    0.95412    1.000
    Zn8      Zn       0.98214    0.99990    0.72061    1.000
    Zn9      Zn       0.36428    0.50013    0.10377    1.000
    S11      S        0.45950    0.36856    0.74501    1.000
    S12      S        0.03956    0.22414    0.73871    1.000
    S13      S        0.20609    0.38707    0.91694    1.000
    S14      S        0.62479    0.21017    0.93626    1.000
    O21      O        0.64040    0.04860    0.90980    1.000
    N13      N        0.95566    0.98042    0.59970    1.000
    N14      N        0.70794    0.96500    0.07590    1.000
    O22      O        0.36061    0.42721    0.62043    1.000
    O23      O        0.35632    0.37538    0.10860    1.000
    O24      O        0.30948    0.44741    0.03150    1.000
    N15      N        0.89288    0.01205    0.73680    1.000
    N16      N        0.45686    0.00871    0.59850    1.000
    O25      O        0.69208    0.10825    0.00790    1.000
    O26      O        0.30392    0.35274    0.56290    1.000
    N17      N        0.78239    0.99104    0.95950    1.000
    O27      O        0.03273    0.06278    0.77340    1.000
    C131     C        0.11990    0.30834    0.82540    1.000
    C132     C        0.45642    0.26044    0.72800    1.000
    O28      O        0.97679    0.11718    0.67170    1.000
    C133     C        0.48770    0.05700    0.61680    1.000
    C134     C        0.89952    0.94903    0.43750    1.000
    N18      N        0.38731    0.49914    0.22760    1.000
    C135     C        0.60840    0.14219    0.90060    1.000
    C136     C        0.92820    0.01760    0.54270    1.000
    H91      H        0.92810    0.05510    0.55780    1.000
    C137     C        0.52820    0.19202    0.80800    1.000
    C138     C        0.13880    0.20921    0.86500    1.000
    C139     C        0.47510    0.20473    0.74410    1.000
    H92      H        0.45200    0.17620    0.71180    1.000
    C140     C        0.49160    0.30311    0.77800    1.000
    C141     C        0.65070    0.09691    0.94400    1.000
    C142     C        0.85810    0.05670    0.70590    1.000
    C143     C        0.54380    0.29162    0.84410    1.000
    C144     C        0.01930    0.10910    0.73600    1.000
    C145     C        0.56120    0.23613    0.85770    1.000
    C146     C        0.76490    0.01860    0.73260    1.000
    C147     C        0.21020    0.27922    0.94080    1.000
    C148     C        0.76136    0.94418    0.24350    1.000
    C149     C        0.86640    0.93450    0.35000    1.000
    C150     C        0.75520    0.99715    0.21220    1.000
    H93      H        0.76880    0.02740    0.24720    1.000
    C151     C        0.31501    0.39556    0.05050    1.000
    C152     C        0.73870    0.90155    0.18850    1.000
    H94      H        0.74130    0.86470    0.20660    1.000
    C153     C        0.10371    0.25219    0.81380    1.000
    C154     C        0.58730    0.01550    0.61880    1.000
    C155     C        0.79359    0.93491    0.33300    1.000
    H95      H        0.78150    0.96440    0.36470    1.000
    H96      H        0.77980    0.89950    0.34990    1.000
    C156     C        0.05890    0.15675    0.77610    1.000
    C157     C        0.71220    0.91337    0.10630    1.000
    H97      H        0.69670    0.88390    0.07060    1.000
    C158     C        0.79490    0.06160    0.70340    1.000
    H98      H        0.77240    0.09380    0.68220    1.000
    C159     C        0.93030    0.91050    0.49500    1.000
    H99      H        0.93300    0.87330    0.48030    1.000
    C160     C        0.26680    0.35865    0.99630    1.000
    C161     C        0.86460    0.97126    0.76810    1.000
    H100     H        0.88850    0.94030    0.79190    1.000
    C162     C        0.55710    0.13820    0.83440    1.000
    C163     C        0.35050    0.37483    0.61180    1.000
    C164     C        0.39890    0.33868    0.66780    1.000
    C165     C        0.80150    0.97360    0.76620    1.000
    H101     H        0.78360    0.94430    0.78810    1.000
    C166     C        0.81910    0.94580    0.96950    1.000
    H102     H        0.80000    0.91080    0.96040    1.000
    C167     C        0.95740    0.92750    0.57510    1.000
    C168     C        0.55460    0.96560    0.59840    1.000
    H103     H        0.57620    0.93340    0.59140    1.000
    C169     C        0.19200    0.22320    0.92820    1.000
    H104     H        0.21550    0.19550    0.96200    1.000
    C170     C        0.17340    0.32127    0.88920    1.000
    C171     C        0.65790    0.01850    0.63310    1.000
    H105     H        0.66790    0.05160    0.60610    1.000
    H106     H        0.67160    0.98610    0.60840    1.000
    C172     C        0.11130    0.15513    0.84070    1.000
    H107     H        0.12810    0.12210    0.86700    1.000
    C173     C        0.26240    0.30265    0.00080    1.000
    C174     C        0.49040    0.96358    0.58860    1.000
    H108     H        0.46940    0.92970    0.57460    1.000
    C175     C        0.55230    0.06250    0.62750    1.000
    H109     H        0.57200    0.09710    0.64030    1.000
    C176     C        0.72920    0.00645    0.12970    1.000
    H110     H        0.72620    0.04310    0.11040    1.000
    C177     C        0.89990    0.00350    0.46290    1.000
    H111     H        0.88070    0.03100    0.42550    1.000
    C178     C        0.40360    0.28259    0.66640    1.000
    H112     H        0.37500    0.26020    0.62860    1.000
    C179     C        0.81100    0.04160    0.97070    1.000
    H113     H        0.78610    0.07370    0.96210    1.000
    C180     C        0.69440    0.02070    0.72250    1.000
    H114     H        0.68240    0.98920    0.75080    1.000
    H115     H        0.68410    0.05490    0.74660    1.000
    C181     C        0.42180    0.55130    0.35120    1.000
    H116     H        0.42850    0.58610    0.37660    1.000
    C182     C        0.87610    0.04690    0.99430    1.000
    H117     H        0.89440    0.08240    0.00170    1.000
    C183     C        0.98690    0.00420    0.03490    1.000
    H118     H        0.99960    0.04070    0.05900    1.000
    H119     H        0.00390    0.97600    0.07630    1.000
    C184     C        0.40100    0.45250    0.27200    1.000
    C185     C        0.42520    0.45260    0.35560    1.000
    H120     H        0.43430    0.41900    0.38410    1.000
    C186     C        0.43590    0.50270    0.39740    1.000
    C187     C        0.39790    0.54760    0.26780    1.000
    C188     C        0.88480    0.94900    0.99300    1.000
    H121     H        0.90890    0.91640    0.99930    1.000
    C189     C        0.46370    0.50350    0.48850    1.000
    H122     H        0.45340    0.53860    0.51020    1.000
    H123     H        0.44550    0.47330    0.51260    1.000
    C190     C        0.91430    0.00040    0.00720    1.000
    H124     H        0.87800    0.90380    0.33500    1.000
    H125     H        0.28780    0.28640    0.03300    1.000
    H126     H        0.53810    0.10350    0.81000    1.000
    H127     H        0.46300    0.08200    0.61600    1.000
    H128     H        0.87600    0.96700    0.30600    1.000
    H129     H        0.56600    0.32400    0.88400    1.000
    H130     H        0.09700    0.33200    0.78300    1.000
    H131     H        0.88300    0.08800    0.68100    1.000
    H132     H        0.39300    0.41800    0.23500    1.000
    H133     H        0.97300    0.89730    0.61000    1.000
    H134     H        0.38300    0.58400    0.23400    1.000
    S15      S        0.82703    0.13935    0.47398    1.000
    S16      S        0.95333    0.32945    0.62818    1.000
    O29      O        0.99189    0.42973    0.71696    1.000
    O30      O        0.65569    0.07683    0.44208    1.000
    O31      O        0.90993    0.44665    0.76540    1.000
    O32      O        0.73793    0.05513    0.39620    1.000
    C191     C        0.71230    0.08527    0.43610    1.000
    C192     C        0.90380    0.36965    0.67770    1.000
    C193     C        0.93640    0.41877    0.72340    1.000
    C194     C        0.74710    0.13377    0.48190    1.000
    C195     C        0.77560    0.21760    0.55550    1.000
    C196     C        0.82920    0.20140    0.53680    1.000
    C197     C        0.82980    0.30030    0.62020    1.000
    C198     C        0.88440    0.28290    0.60020    1.000
    C199     C        0.88590    0.23390    0.55760    1.000
    H135     H        0.92190    0.22290    0.54340    1.000
    C200     C        0.77230    0.26780    0.59960    1.000
    H136     H        0.73610    0.27860    0.61370    1.000
    Zn10     Zn       0.31152    0.48231    0.54588    1.000
    Zn11     Zn       0.01786    0.49990    0.77939    1.000
    Zn12     Zn       0.63572    0.00013    0.39623    1.000
    S17      S        0.54050    0.86856    0.75499    1.000
    S18      S        0.96044    0.72414    0.76129    1.000
    S19      S        0.79391    0.88707    0.58306    1.000
    S20      S        0.37521    0.71017    0.56374    1.000
    O33      O        0.35960    0.54860    0.59020    1.000
    N19      N        0.04434    0.48042    0.90030    1.000
    N20      N        0.29206    0.46500    0.42410    1.000
    O34      O        0.63939    0.92721    0.87957    1.000
    O35      O        0.64368    0.87538    0.39140    1.000
    O36      O        0.69052    0.94741    0.46850    1.000
    N21      N        0.10712    0.51205    0.76320    1.000
    N22      N        0.54314    0.50871    0.90150    1.000
    O37      O        0.30792    0.60825    0.49210    1.000
    O38      O        0.69608    0.85274    0.93710    1.000
    N23      N        0.21761    0.49104    0.54050    1.000
    O39      O        0.96727    0.56278    0.72660    1.000
    C201     C        0.88010    0.80834    0.67460    1.000
    C202     C        0.54358    0.76044    0.77200    1.000
    O40      O        0.02321    0.61718    0.82830    1.000
    C203     C        0.51230    0.55700    0.88320    1.000
    C204     C        0.10048    0.44903    0.06250    1.000
    N24      N        0.61269    0.99914    0.27240    1.000
    C205     C        0.39160    0.64219    0.59940    1.000
    C206     C        0.07180    0.51760    0.95730    1.000
    H137     H        0.07190    0.55510    0.94220    1.000
    C207     C        0.47180    0.69202    0.69200    1.000
    C208     C        0.86120    0.70921    0.63500    1.000
    C209     C        0.52490    0.70473    0.75590    1.000
    H138     H        0.54800    0.67620    0.78820    1.000
    C210     C        0.50840    0.80311    0.72200    1.000
    C211     C        0.34930    0.59691    0.55600    1.000
    C212     C        0.14190    0.55670    0.79410    1.000
    C213     C        0.45620    0.79162    0.65590    1.000
    C214     C        0.98070    0.60910    0.76400    1.000
    C215     C        0.43880    0.73613    0.64230    1.000
    C216     C        0.23510    0.51860    0.76740    1.000
    C217     C        0.78980    0.77922    0.55920    1.000
    C218     C        0.23864    0.44418    0.25650    1.000
    C219     C        0.13360    0.43450    0.15000    1.000
    C220     C        0.24480    0.49715    0.28780    1.000
    H139     H        0.23120    0.52740    0.25280    1.000
    C221     C        0.68499    0.89556    0.44950    1.000
    C222     C        0.26130    0.40155    0.31150    1.000
    H140     H        0.25870    0.36470    0.29340    1.000
    C223     C        0.89629    0.75219    0.68620    1.000
    C224     C        0.41270    0.51550    0.88120    1.000
    C225     C        0.20641    0.43491    0.16700    1.000
    H141     H        0.21850    0.46440    0.13530    1.000
    H142     H        0.22020    0.39950    0.15010    1.000
    C226     C        0.94110    0.65675    0.72390    1.000
    C227     C        0.28780    0.41337    0.39370    1.000
    H143     H        0.30330    0.38390    0.42940    1.000
    C228     C        0.20510    0.56160    0.79660    1.000
    H144     H        0.22760    0.59380    0.81780    1.000
    C229     C        0.06970    0.41050    0.00500    1.000
    H145     H        0.06700    0.37330    0.01970    1.000
    C230     C        0.73320    0.85865    0.50370    1.000
    C231     C        0.13540    0.47126    0.73190    1.000
    H146     H        0.11150    0.44030    0.70810    1.000
    C232     C        0.44290    0.63820    0.66560    1.000
    C233     C        0.64950    0.87483    0.88820    1.000
    C234     C        0.60110    0.83868    0.83220    1.000
    C235     C        0.19850    0.47360    0.73380    1.000
    H147     H        0.21640    0.44430    0.71190    1.000
    C236     C        0.18090    0.44580    0.53050    1.000
    H148     H        0.20000    0.41080    0.53960    1.000
    C237     C        0.04260    0.42750    0.92490    1.000
    C238     C        0.44540    0.46560    0.90160    1.000
    H149     H        0.42380    0.43340    0.90860    1.000
    C239     C        0.80800    0.72320    0.57180    1.000
    H150     H        0.78450    0.69550    0.53800    1.000
    C240     C        0.82660    0.82127    0.61080    1.000
    C241     C        0.34210    0.51850    0.86690    1.000
    H151     H        0.33210    0.55160    0.89390    1.000
    H152     H        0.32840    0.48610    0.89160    1.000
    C242     C        0.88870    0.65513    0.65930    1.000
    H153     H        0.87190    0.62210    0.63300    1.000
    C243     C        0.73760    0.80265    0.49920    1.000
    C244     C        0.50960    0.46358    0.91140    1.000
    H154     H        0.53060    0.42970    0.92540    1.000
    C245     C        0.44770    0.56250    0.87250    1.000
    H155     H        0.42800    0.59710    0.85970    1.000
    C246     C        0.27080    0.50645    0.37030    1.000
    H156     H        0.27380    0.54310    0.38960    1.000
    C247     C        0.10010    0.50350    0.03710    1.000
    H157     H        0.11930    0.53100    0.07450    1.000
    C248     C        0.59640    0.78259    0.83360    1.000
    H158     H        0.62500    0.76020    0.87140    1.000
    C249     C        0.18900    0.54160    0.52930    1.000
    H159     H        0.21390    0.57370    0.53790    1.000
    C250     C        0.30560    0.52070    0.77750    1.000
    H160     H        0.31760    0.48920    0.74920    1.000
    H161     H        0.31590    0.55490    0.75340    1.000
    C251     C        0.57820    0.05130    0.14880    1.000
    H162     H        0.57150    0.08610    0.12340    1.000
    C252     C        0.12390    0.54690    0.50570    1.000
    H163     H        0.10560    0.58240    0.49830    1.000
    C253     C        0.01310    0.50420    0.46510    1.000
    H164     H        0.00040    0.54070    0.44100    1.000
    H165     H        0.99610    0.47600    0.42370    1.000
    C254     C        0.59900    0.95250    0.22800    1.000
    C255     C        0.57480    0.95260    0.14440    1.000
    H166     H        0.56570    0.91900    0.11590    1.000
    C256     C        0.56410    0.00270    0.10260    1.000
    C257     C        0.60210    0.04760    0.23220    1.000
    C258     C        0.11520    0.44900    0.50700    1.000
    H167     H        0.09110    0.41640    0.50070    1.000
    C259     C        0.53630    0.00350    0.01150    1.000
    H168     H        0.54660    0.03860    0.98980    1.000
    H169     H        0.55450    0.97330    0.98740    1.000
    C260     C        0.08570    0.50040    0.49280    1.000
    H170     H        0.12200    0.40380    0.16500    1.000
    H171     H        0.71220    0.78640    0.46700    1.000
    H172     H        0.46190    0.60350    0.69000    1.000
    H173     H        0.53700    0.58200    0.88400    1.000
    H174     H        0.12400    0.46700    0.19400    1.000
    H175     H        0.43400    0.82400    0.61600    1.000
    H176     H        0.90300    0.83200    0.71700    1.000
    H177     H        0.11700    0.58800    0.81900    1.000
    H178     H        0.60700    0.91800    0.26500    1.000
    H179     H        0.02700    0.39730    0.89000    1.000
    H180     H        0.61700    0.08400    0.26600    1.000
