# CIF file generated by openbabel 3.1.0, see https://openbabel.org
data_I
_chemical_name_common 'image0'
_cell_length_a 14.3228
_cell_length_b 14.3228
_cell_length_c 14.3228
_cell_angle_alpha 90
_cell_angle_beta 90
_cell_angle_gamma 90
_space_group_name_H-M_alt 'P 1'
_space_group_name_Hall 'P 1'
loop_
    _symmetry_equiv_pos_as_xyz
    x,y,z
loop_
    _atom_site_label
    _atom_site_type_symbol
    _atom_site_fract_x
    _atom_site_fract_y
    _atom_site_fract_z
    _atom_site_occupancy
    Cu1      Cu       0.50000    0.00000    0.25000    1.000
    Cu2      Cu       0.50000    0.00000    0.75000    1.000
    Cu3      Cu       0.25000    0.50000    0.00000    1.000
    Cu4      Cu       0.75000    0.50000    0.00000    1.000
    Cu5      Cu       0.00000    0.25000    0.50000    1.000
    Cu6      Cu       0.00000    0.75000    0.50000    1.000
    Cu7      Cu       0.50000    0.25000    0.00000    1.000
    Cu8      Cu       0.00000    0.50000    0.75000    1.000
    Cu9      Cu       0.00000    0.50000    0.25000    1.000
    Cu10     Cu       0.50000    0.75000    0.00000    1.000
    Cu11     Cu       0.25000    0.00000    0.50000    1.000
    Cu12     Cu       0.75000    0.00000    0.50000    1.000
    O1       O        0.50000    0.85960    0.25010    1.000
    O2       O        0.00000    0.35960    0.75010    1.000
    O3       O        0.50000    0.14040    0.25010    1.000
    O4       O        0.00000    0.64040    0.75010    1.000
    O5       O        0.50000    0.85960    0.74990    1.000
    O6       O        0.00000    0.35960    0.24990    1.000
    O7       O        0.50000    0.14040    0.74990    1.000
    O8       O        0.00000    0.64040    0.24990    1.000
    O9       O        0.25010    0.50000    0.85960    1.000
    O10      O        0.75010    0.00000    0.35960    1.000
    O11      O        0.25010    0.50000    0.14040    1.000
    O12      O        0.75010    0.00000    0.64040    1.000
    O13      O        0.74990    0.50000    0.85960    1.000
    O14      O        0.24990    0.00000    0.35960    1.000
    O15      O        0.74990    0.50000    0.14040    1.000
    O16      O        0.24990    0.00000    0.64040    1.000
    O17      O        0.85960    0.25010    0.50000    1.000
    O18      O        0.35960    0.75010    0.00000    1.000
    O19      O        0.14040    0.25010    0.50000    1.000
    O20      O        0.64040    0.75010    0.00000    1.000
    O21      O        0.85960    0.74990    0.50000    1.000
    O22      O        0.35960    0.24990    0.00000    1.000
    O23      O        0.14040    0.74990    0.50000    1.000
    O24      O        0.64040    0.24990    0.00000    1.000
    O25      O        0.85960    0.50000    0.74990    1.000
    O26      O        0.35960    0.00000    0.24990    1.000
    O27      O        0.14040    0.50000    0.74990    1.000
    O28      O        0.64040    0.00000    0.24990    1.000
    O29      O        0.85960    0.50000    0.25010    1.000
    O30      O        0.35960    0.00000    0.75010    1.000
    O31      O        0.14040    0.50000    0.25010    1.000
    O32      O        0.64040    0.00000    0.75010    1.000
    O33      O        0.50000    0.25010    0.14040    1.000
    O34      O        0.00000    0.75010    0.64040    1.000
    O35      O        0.50000    0.25010    0.85960    1.000
    O36      O        0.00000    0.75010    0.35960    1.000
    O37      O        0.50000    0.74990    0.14040    1.000
    O38      O        0.00000    0.24990    0.64040    1.000
    O39      O        0.50000    0.74990    0.85960    1.000
    O40      O        0.00000    0.24990    0.35960    1.000
    O41      O        0.25010    0.85960    0.50000    1.000
    O42      O        0.75010    0.35960    0.00000    1.000
    O43      O        0.25010    0.14040    0.50000    1.000
    O44      O        0.75010    0.64040    0.00000    1.000
    O45      O        0.74990    0.85960    0.50000    1.000
    O46      O        0.24990    0.35960    0.00000    1.000
    O47      O        0.74990    0.14040    0.50000    1.000
    O48      O        0.24990    0.64040    0.00000    1.000
    C1       C        0.50000    0.83760    0.16240    1.000
    O49      O        0.50000    0.89930    0.10070    1.000
    C2       C        0.00000    0.33760    0.66240    1.000
    O50      O        0.00000    0.39930    0.60070    1.000
    C3       C        0.50000    0.16240    0.16240    1.000
    O51      O        0.50000    0.10070    0.10070    1.000
    C4       C        0.00000    0.66240    0.66240    1.000
    O52      O        0.00000    0.60070    0.60070    1.000
    C5       C        0.50000    0.83760    0.83760    1.000
    O53      O        0.50000    0.89930    0.89930    1.000
    C6       C        0.00000    0.33760    0.33760    1.000
    O54      O        0.00000    0.39930    0.39930    1.000
    C7       C        0.50000    0.16240    0.83760    1.000
    O55      O        0.50000    0.10070    0.89930    1.000
    C8       C        0.00000    0.66240    0.33760    1.000
    O56      O        0.00000    0.60070    0.39930    1.000
    C9       C        0.16240    0.50000    0.83760    1.000
    O57      O        0.10070    0.50000    0.89930    1.000
    C10      C        0.66240    0.00000    0.33760    1.000
    O58      O        0.60070    0.00000    0.39930    1.000
    C11      C        0.16240    0.50000    0.16240    1.000
    O59      O        0.10070    0.50000    0.10070    1.000
    C12      C        0.66240    0.00000    0.66240    1.000
    O60      O        0.60070    0.00000    0.60070    1.000
    C13      C        0.83760    0.50000    0.83760    1.000
    O61      O        0.89930    0.50000    0.89930    1.000
    C14      C        0.33760    0.00000    0.33760    1.000
    O62      O        0.39930    0.00000    0.39930    1.000
    C15      C        0.83760    0.50000    0.16240    1.000
    O63      O        0.89930    0.50000    0.10070    1.000
    C16      C        0.33760    0.00000    0.66240    1.000
    O64      O        0.39930    0.00000    0.60070    1.000
    C17      C        0.83760    0.16240    0.50000    1.000
    O65      O        0.89930    0.10070    0.50000    1.000
    C18      C        0.33760    0.66240    0.00000    1.000
    O66      O        0.39930    0.60070    0.00000    1.000
    C19      C        0.16240    0.16240    0.50000    1.000
    O67      O        0.10070    0.10070    0.50000    1.000
    C20      C        0.66240    0.66240    0.00000    1.000
    O68      O        0.60070    0.60070    0.00000    1.000
    C21      C        0.83760    0.83760    0.50000    1.000
    O69      O        0.89930    0.89930    0.50000    1.000
    C22      C        0.33760    0.33760    0.00000    1.000
    O70      O        0.39930    0.39930    0.00000    1.000
    C23      C        0.16240    0.83760    0.50000    1.000
    O71      O        0.10070    0.89930    0.50000    1.000
    C24      C        0.66240    0.33760    0.00000    1.000
    O72      O        0.60070    0.39930    0.00000    1.000
    Li1      Li       0.50000    0.00000    0.00000    1.000
    Li2      Li       0.00000    0.50000    0.50000    1.000
    Li3      Li       0.00000    0.50000    0.00000    1.000
    Li4      Li       0.50000    0.00000    0.50000    1.000
    Li5      Li       0.00000    0.00000    0.50000    1.000
    Li6      Li       0.50000    0.50000    0.00000    1.000
