# CIF file generated by openbabel 3.1.0, see https://openbabel.org
data_I
_chemical_name_common 'image0'
_cell_length_a 14.4802
_cell_length_b 14.4802
_cell_length_c 8.7884
_cell_angle_alpha 90
_cell_angle_beta 90
_cell_angle_gamma 120
_space_group_name_H-M_alt 'P 1'
_space_group_name_Hall 'P 1'
loop_
    _symmetry_equiv_pos_as_xyz
    x,y,z
loop_
    _atom_site_label
    _atom_site_type_symbol
    _atom_site_fract_x
    _atom_site_fract_y
    _atom_site_fract_z
    _atom_site_occupancy
    Ag1      Ag       0.89594    0.59922    0.10093    1.000
    C1       C        0.91100    0.53060    0.78390    1.000
    C2       C        0.95690    0.51520    0.63610    1.000
    C3       C        0.99230    0.59320    0.52200    1.000
    C4       C        0.98250    0.68630    0.53520    1.000
    H1       H        0.95530    0.69760    0.62460    1.000
    C5       C        0.01160    0.75790    0.42190    1.000
    H2       H        0.00290    0.81690    0.43320    1.000
    C6       C        0.05570    0.74420    0.28460    1.000
    H3       H        0.07620    0.79460    0.20730    1.000
    C7       C        0.06790    0.65690    0.26610    1.000
    H4       H        0.09740    0.64900    0.17640    1.000
    C8       C        0.96410    0.42230    0.61700    1.000
    C9       C        0.56460    0.31870    0.36070    1.000
    H5       H        0.50640    0.25160    0.39790    1.000
    H6       H        0.55390    0.37560    0.39820    1.000
    C10      C        0.65260    0.42130    0.13810    1.000
    H7       H        0.65250    0.42240    0.02770    1.000
    H8       H        0.64300    0.47930    0.17400    1.000
    N1       N        0.56280    0.31860    0.19230    1.000
    O1       O        0.81330    0.47480    0.80900    1.000
    O2       O        0.97660    0.60080    0.87330    1.000
    Ag2      Ag       0.40078    0.29672    0.10093    1.000
    C11      C        0.46940    0.38040    0.78390    1.000
    C12      C        0.48480    0.44170    0.63610    1.000
    C13      C        0.40680    0.39910    0.52200    1.000
    C14      C        0.31370    0.29620    0.53520    1.000
    H9       H        0.30240    0.25770    0.62460    1.000
    C15      C        0.24210    0.25370    0.42190    1.000
    H10      H        0.18310    0.18600    0.43320    1.000
    C16      C        0.25580    0.31150    0.28460    1.000
    H11      H        0.20540    0.28160    0.20730    1.000
    C17      C        0.34310    0.41100    0.26610    1.000
    H12      H        0.35100    0.44840    0.17640    1.000
    C18      C        0.57770    0.54180    0.61700    1.000
    C19      C        0.68130    0.24590    0.36070    1.000
    H13      H        0.74840    0.25480    0.39790    1.000
    H14      H        0.62440    0.17830    0.39820    1.000
    C20      C        0.57870    0.23130    0.13810    1.000
    H15      H        0.57760    0.23010    0.02770    1.000
    H16      H        0.52070    0.16370    0.17400    1.000
    N2       N        0.68140    0.24420    0.19230    1.000
    O3       O        0.52520    0.33850    0.80900    1.000
    O4       O        0.39920    0.37580    0.87330    1.000
    Ag3      Ag       0.70328    0.10406    0.10093    1.000
    C21      C        0.61960    0.08900    0.78390    1.000
    C22      C        0.55830    0.04310    0.63610    1.000
    C23      C        0.60090    0.00770    0.52200    1.000
    C24      C        0.70380    0.01750    0.53520    1.000
    H17      H        0.74230    0.04470    0.62460    1.000
    C25      C        0.74630    0.98840    0.42190    1.000
    H18      H        0.81400    0.99710    0.43320    1.000
    C26      C        0.68850    0.94430    0.28460    1.000
    H19      H        0.71840    0.92380    0.20730    1.000
    C27      C        0.58900    0.93210    0.26610    1.000
    H20      H        0.55160    0.90260    0.17640    1.000
    C28      C        0.45820    0.03590    0.61700    1.000
    C29      C        0.75410    0.43540    0.36070    1.000
    H21      H        0.74520    0.49360    0.39790    1.000
    H22      H        0.82170    0.44610    0.39820    1.000
    C30      C        0.76870    0.34740    0.13810    1.000
    H23      H        0.76990    0.34750    0.02770    1.000
    H24      H        0.83630    0.35700    0.17400    1.000
    N3       N        0.75580    0.43720    0.19230    1.000
    O5       O        0.66150    0.18670    0.80900    1.000
    O6       O        0.62420    0.02340    0.87330    1.000
    Ag4      Ag       0.10406    0.40078    0.89907    1.000
    C31      C        0.08900    0.46940    0.21610    1.000
    C32      C        0.04310    0.48480    0.36390    1.000
    C33      C        0.00770    0.40680    0.47800    1.000
    C34      C        0.01750    0.31370    0.46480    1.000
    H25      H        0.04470    0.30240    0.37540    1.000
    C35      C        0.98840    0.24210    0.57810    1.000
    H26      H        0.99710    0.18310    0.56680    1.000
    C36      C        0.94430    0.25580    0.71540    1.000
    H27      H        0.92380    0.20540    0.79270    1.000
    C37      C        0.93210    0.34310    0.73390    1.000
    H28      H        0.90260    0.35100    0.82360    1.000
    C38      C        0.03590    0.57770    0.38300    1.000
    C39      C        0.43540    0.68130    0.63930    1.000
    H29      H        0.49360    0.74840    0.60210    1.000
    H30      H        0.44610    0.62440    0.60180    1.000
    C40      C        0.34740    0.57870    0.86190    1.000
    H31      H        0.34750    0.57760    0.97230    1.000
    H32      H        0.35700    0.52070    0.82600    1.000
    N4       N        0.43720    0.68140    0.80770    1.000
    O7       O        0.18670    0.52520    0.19100    1.000
    O8       O        0.02340    0.39920    0.12670    1.000
    Ag5      Ag       0.59922    0.70328    0.89907    1.000
    C41      C        0.53060    0.61960    0.21610    1.000
    C42      C        0.51520    0.55830    0.36390    1.000
    C43      C        0.59320    0.60090    0.47800    1.000
    C44      C        0.68630    0.70380    0.46480    1.000
    H33      H        0.69760    0.74230    0.37540    1.000
    C45      C        0.75790    0.74630    0.57810    1.000
    H34      H        0.81690    0.81400    0.56680    1.000
    C46      C        0.74420    0.68850    0.71540    1.000
    H35      H        0.79460    0.71840    0.79270    1.000
    C47      C        0.65690    0.58900    0.73390    1.000
    H36      H        0.64900    0.55160    0.82360    1.000
    C48      C        0.42230    0.45820    0.38300    1.000
    C49      C        0.31870    0.75410    0.63930    1.000
    H37      H        0.25160    0.74520    0.60210    1.000
    H38      H        0.37560    0.82170    0.60180    1.000
    C50      C        0.42130    0.76870    0.86190    1.000
    H39      H        0.42240    0.76990    0.97230    1.000
    H40      H        0.47930    0.83630    0.82600    1.000
    N5       N        0.31860    0.75580    0.80770    1.000
    O9       O        0.47480    0.66150    0.19100    1.000
    O10      O        0.60080    0.62420    0.12670    1.000
    Ag6      Ag       0.29672    0.89594    0.89907    1.000
    C51      C        0.38040    0.91100    0.21610    1.000
    C52      C        0.44170    0.95690    0.36390    1.000
    C53      C        0.39910    0.99230    0.47800    1.000
    C54      C        0.29620    0.98250    0.46480    1.000
    H41      H        0.25770    0.95530    0.37540    1.000
    C55      C        0.25370    0.01160    0.57810    1.000
    H42      H        0.18600    0.00290    0.56680    1.000
    C56      C        0.31150    0.05570    0.71540    1.000
    H43      H        0.28160    0.07620    0.79270    1.000
    C57      C        0.41100    0.06790    0.73390    1.000
    H44      H        0.44840    0.09740    0.82360    1.000
    C58      C        0.54180    0.96410    0.38300    1.000
    C59      C        0.24590    0.56460    0.63930    1.000
    H45      H        0.25480    0.50640    0.60210    1.000
    H46      H        0.17830    0.55390    0.60180    1.000
    C60      C        0.23130    0.65260    0.86190    1.000
    H47      H        0.23010    0.65250    0.97230    1.000
    H48      H        0.16370    0.64300    0.82600    1.000
    N6       N        0.24420    0.56280    0.80770    1.000
    O11      O        0.33850    0.81330    0.19100    1.000
    O12      O        0.37580    0.97660    0.12670    1.000
    Ag7      Ag       0.66667    0.33333    0.68141    1.000
    N7       N        0.66667    0.33333    0.42060    1.000
    Ag8      Ag       0.33333    0.66667    0.31859    1.000
    N8       N        0.33333    0.66667    0.57940    1.000
