# CIF file generated by openbabel 3.1.0, see https://openbabel.org
data_I
_chemical_name_common 'ja5b02777_si_008_clean'
_cell_length_a 8.473
_cell_length_b 8.8703
_cell_length_c 15.9613
_cell_angle_alpha 88.113
_cell_angle_beta 75.349
_cell_angle_gamma 68.285
_space_group_name_H-M_alt 'P 1'
_space_group_name_Hall 'P 1'
loop_
    _symmetry_equiv_pos_as_xyz
    x,y,z
loop_
    _atom_site_label
    _atom_site_type_symbol
    _atom_site_fract_x
    _atom_site_fract_y
    _atom_site_fract_z
    _atom_site_occupancy
    Li1      Li       0.85020    0.79840    0.62670    1.000
    Li2      Li       0.51810    0.79770    0.64660    1.000
    Li3      Li       0.17500    0.81160    0.67540    1.000
    Li4      Li       0.51260    0.80550    0.15050    1.000
    Zr1      Zr       0.39310    0.26860    0.41320    1.000
    Zr2      Zr       0.63030    0.34140    0.88900    1.000
    C1       C        0.36180    0.02060    0.54910    1.000
    C2       C        0.34500    0.05480    0.28180    1.000
    C3       C        0.67820    0.55560    0.02020    1.000
    C4       C        0.98320    0.06850    0.80020    1.000
    C5       C        0.84780    0.05170    0.75630    1.000
    C6       C        0.37690    0.17280    0.98150    1.000
    C7       C        0.53790    0.10280    0.01980    1.000
    C8       C        0.17540    0.55900    0.54560    1.000
    C9       C        0.53810    0.03590    0.54700    1.000
    C10      C        0.48030    0.62380    0.02510    1.000
    C11      C        0.64690    0.43680    0.32070    1.000
    C12      C        0.66370    0.58720    0.75210    1.000
    C13      C        0.48590    0.50700    0.28240    1.000
    C14      C        0.03990    0.54080    0.50220    1.000
    C15      C        0.48740    0.57250    0.75400    1.000
    C16      C        0.54270    0.98570    0.27750    1.000
    O1       O        0.58530    0.06250    0.33070    1.000
    O2       O        0.46870    0.61370    0.23100    1.000
    O3       O        0.37240    0.43640    0.31180    1.000
    O4       O        0.64440    0.86870    0.22620    1.000
    O5       O        0.62910    0.94810    0.59390    1.000
    O6       O        0.44950    0.47150    0.80590    1.000
    O7       O        0.28640    0.98810    0.23700    1.000
    O8       O        0.76670    0.42750    0.96690    1.000
    O9       O        0.69170    0.15780    0.78340    1.000
    O10      O        0.70740    0.68860    0.70540    1.000
    O11      O        0.43770    0.54660    0.97210    1.000
    O12      O        0.10550    0.42010    0.44460    1.000
    O13      O        0.91790    0.18920    0.85780    1.000
    O14      O        0.88470    0.63810    0.52430    1.000
    O15      O        0.33170    0.45350    0.51830    1.000
    O16      O        0.55530    0.99590    0.07110    1.000
    O17      O        0.24720    0.13560    0.00750    1.000
    O18      O        0.77660    0.47410    0.29480    1.000
    O19      O        0.65120    0.17360    0.99050    1.000
    O20      O        0.37850    0.74050    0.07650    1.000
    O21      O        0.75030    0.49100    0.80030    1.000
    O22      O        0.13790    0.97040    0.77830    1.000
    O23      O        0.90140    0.93890    0.69890    1.000
    O24      O        0.12170    0.67210    0.60290    1.000
    O25      O        0.25670    0.18270    0.33520    1.000
    O26      O        0.62800    0.33680    0.38040    1.000
    O27      O        0.73690    0.62290    0.06460    1.000
    O28      O        0.39840    0.65800    0.70560    1.000
    O29      O        0.27360    0.11850    0.50200    1.000
    O30      O        0.57370    0.13940    0.49650    1.000
    O31      O        0.39600    0.27240    0.92160    1.000
    O32      O        0.32000    0.91730    0.59480    1.000
