# CIF file generated by openbabel 3.1.0, see https://openbabel.org
data_I
_chemical_name_common 'image0'
_cell_length_a 13.631
_cell_length_b 16.7804
_cell_length_c 10.9261
_cell_angle_alpha 90
_cell_angle_beta 115.623
_cell_angle_gamma 90
_space_group_name_H-M_alt 'P 1'
_space_group_name_Hall 'P 1'
loop_
    _symmetry_equiv_pos_as_xyz
    x,y,z
loop_
    _atom_site_label
    _atom_site_type_symbol
    _atom_site_fract_x
    _atom_site_fract_y
    _atom_site_fract_z
    _atom_site_occupancy
    Ag1      Ag       0.55286    0.55742    0.83075    1.000
    C1       C        0.63840    0.55380    0.60860    1.000
    H1       H        0.67550    0.52950    0.55750    1.000
    H2       H        0.67770    0.60330    0.65160    1.000
    C2       C        0.46520    0.44459    0.55280    1.000
    H3       H        0.42590    0.39510    0.50950    1.000
    H4       H        0.42770    0.46910    0.60330    1.000
    N1       N        0.64120    0.49775    0.71520    1.000
    N2       N        0.46330    0.50017    0.44740    1.000
    C3       C        0.82720    0.43910    0.76950    1.000
    C4       C        0.28080    0.56160    0.40230    1.000
    C5       C        0.94990    0.44150    0.65630    1.000
    H5       H        0.98670    0.47080    0.61450    1.000
    C6       C        0.20950    0.68660    0.43550    1.000
    C7       C        0.16460    0.56630    0.51400    1.000
    H6       H        0.12800    0.53900    0.55830    1.000
    C8       C        0.52280    0.57350    0.51280    1.000
    H7       H        0.48640    0.59970    0.56330    1.000
    H8       H        0.52210    0.61110    0.44250    1.000
    C9       C        0.35060    0.51760    0.34540    1.000
    H9       H        0.31430    0.46670    0.30490    1.000
    H10      H        0.35410    0.55020    0.27190    1.000
    C10      C        0.58150    0.42450    0.65040    1.000
    H11      H        0.58150    0.38740    0.72090    1.000
    H12      H        0.61810    0.39780    0.60070    1.000
    C11      C        0.90610    0.31820    0.72960    1.000
    C12      C        0.75490    0.48170    0.81840    1.000
    H13      H        0.78930    0.53340    0.85750    1.000
    H14      H        0.75130    0.45010    0.89270    1.000
    C13      C        0.83910    0.35760    0.77910    1.000
    H15      H        0.80170    0.32760    0.81950    1.000
    C14      C        0.27080    0.64510    0.38420    1.000
    H16      H        0.30570    0.67220    0.33760    1.000
    C15      C        0.88360    0.48140    0.70610    1.000
    H17      H        0.87630    0.53770    0.69720    1.000
    C16      C        0.91760    0.23420    0.74370    1.000
    C17      C        0.96120    0.36060    0.66820    1.000
    H18      H        0.00590    0.33350    0.63510    1.000
    C18      C        0.22490    0.52290    0.46240    1.000
    H19      H        0.22730    0.46640    0.46880    1.000
    C19      C        0.19950    0.77270    0.42050    1.000
    N3       N        0.19080    0.83970    0.41310    1.000
    N4       N        0.92820    0.16570    0.75670    1.000
    C20      C        0.15660    0.64790    0.50270    1.000
    H20      H        0.11600    0.67710    0.53970    1.000
    Ag2      Ag       0.05286    0.05742    0.83075    1.000
    C21      C        0.13840    0.05380    0.60860    1.000
    H21      H        0.17550    0.02950    0.55750    1.000
    H22      H        0.17770    0.10330    0.65160    1.000
    C22      C        0.96520    0.94459    0.55280    1.000
    H23      H        0.92590    0.89510    0.50950    1.000
    H24      H        0.92770    0.96910    0.60330    1.000
    N5       N        0.14120    0.99775    0.71520    1.000
    N6       N        0.96330    0.00017    0.44740    1.000
    C23      C        0.32720    0.93910    0.76950    1.000
    C24      C        0.78080    0.06160    0.40230    1.000
    C25      C        0.44990    0.94150    0.65630    1.000
    H25      H        0.48670    0.97080    0.61450    1.000
    C26      C        0.70950    0.18660    0.43550    1.000
    C27      C        0.66460    0.06630    0.51400    1.000
    H26      H        0.62800    0.03900    0.55830    1.000
    C28      C        0.02280    0.07350    0.51280    1.000
    H27      H        0.98640    0.09970    0.56330    1.000
    H28      H        0.02210    0.11110    0.44250    1.000
    C29      C        0.85060    0.01760    0.34540    1.000
    H29      H        0.81430    0.96670    0.30490    1.000
    H30      H        0.85410    0.05020    0.27190    1.000
    C30      C        0.08150    0.92450    0.65040    1.000
    H31      H        0.08150    0.88740    0.72090    1.000
    H32      H        0.11810    0.89780    0.60070    1.000
    C31      C        0.40610    0.81820    0.72960    1.000
    C32      C        0.25490    0.98170    0.81840    1.000
    H33      H        0.28930    0.03340    0.85750    1.000
    H34      H        0.25130    0.95010    0.89270    1.000
    C33      C        0.33910    0.85760    0.77910    1.000
    H35      H        0.30170    0.82760    0.81950    1.000
    C34      C        0.77080    0.14510    0.38420    1.000
    H36      H        0.80570    0.17220    0.33760    1.000
    C35      C        0.38360    0.98140    0.70610    1.000
    H37      H        0.37630    0.03770    0.69720    1.000
    C36      C        0.41760    0.73420    0.74370    1.000
    C37      C        0.46120    0.86060    0.66820    1.000
    H38      H        0.50590    0.83350    0.63510    1.000
    C38      C        0.72490    0.02290    0.46240    1.000
    H39      H        0.72730    0.96640    0.46880    1.000
    C39      C        0.69950    0.27270    0.42050    1.000
    N7       N        0.69080    0.33970    0.41310    1.000
    N8       N        0.42820    0.66570    0.75670    1.000
    C40      C        0.65660    0.14790    0.50270    1.000
    H40      H        0.61600    0.17710    0.53970    1.000
    Ag3      Ag       0.55286    0.44258    0.33075    1.000
    C41      C        0.63840    0.44620    0.10860    1.000
    H41      H        0.67550    0.47050    0.05750    1.000
    H42      H        0.67770    0.39670    0.15160    1.000
    C42      C        0.46520    0.55541    0.05280    1.000
    H43      H        0.42590    0.60490    0.00950    1.000
    H44      H        0.42770    0.53090    0.10330    1.000
    N9       N        0.64120    0.50225    0.21520    1.000
    N10      N        0.46330    0.49983    0.94740    1.000
    C43      C        0.82720    0.56090    0.26950    1.000
    C44      C        0.28080    0.43840    0.90230    1.000
    C45      C        0.94990    0.55850    0.15630    1.000
    H45      H        0.98670    0.52920    0.11450    1.000
    C46      C        0.20950    0.31340    0.93550    1.000
    C47      C        0.16460    0.43370    0.01400    1.000
    H46      H        0.12800    0.46100    0.05830    1.000
    C48      C        0.52280    0.42650    0.01280    1.000
    H47      H        0.48640    0.40030    0.06330    1.000
    H48      H        0.52210    0.38890    0.94250    1.000
    C49      C        0.35060    0.48240    0.84540    1.000
    H49      H        0.31430    0.53330    0.80490    1.000
    H50      H        0.35410    0.44980    0.77190    1.000
    C50      C        0.58150    0.57550    0.15040    1.000
    H51      H        0.58150    0.61260    0.22090    1.000
    H52      H        0.61810    0.60220    0.10070    1.000
    C51      C        0.90610    0.68180    0.22960    1.000
    C52      C        0.75490    0.51830    0.31840    1.000
    H53      H        0.78930    0.46660    0.35750    1.000
    H54      H        0.75130    0.54990    0.39270    1.000
    C53      C        0.83910    0.64240    0.27910    1.000
    H55      H        0.80170    0.67240    0.31950    1.000
    C54      C        0.27080    0.35490    0.88420    1.000
    H56      H        0.30570    0.32780    0.83760    1.000
    C55      C        0.88360    0.51860    0.20610    1.000
    H57      H        0.87630    0.46230    0.19720    1.000
    C56      C        0.91760    0.76580    0.24370    1.000
    C57      C        0.96120    0.63940    0.16820    1.000
    H58      H        0.00590    0.66650    0.13510    1.000
    C58      C        0.22490    0.47710    0.96240    1.000
    H59      H        0.22730    0.53360    0.96880    1.000
    C59      C        0.19950    0.22730    0.92050    1.000
    N11      N        0.19080    0.16030    0.91310    1.000
    N12      N        0.92820    0.83430    0.25670    1.000
    C60      C        0.15660    0.35210    0.00270    1.000
    H60      H        0.11600    0.32290    0.03970    1.000
    Ag4      Ag       0.05286    0.94258    0.33075    1.000
    C61      C        0.13840    0.94620    0.10860    1.000
    H61      H        0.17550    0.97050    0.05750    1.000
    H62      H        0.17770    0.89670    0.15160    1.000
    C62      C        0.96520    0.05541    0.05280    1.000
    H63      H        0.92590    0.10490    0.00950    1.000
    H64      H        0.92770    0.03090    0.10330    1.000
    N13      N        0.14120    0.00225    0.21520    1.000
    N14      N        0.96330    0.99983    0.94740    1.000
    C63      C        0.32720    0.06090    0.26950    1.000
    C64      C        0.78080    0.93840    0.90230    1.000
    C65      C        0.44990    0.05850    0.15630    1.000
    H65      H        0.48670    0.02920    0.11450    1.000
    C66      C        0.70950    0.81340    0.93550    1.000
    C67      C        0.66460    0.93370    0.01400    1.000
    H66      H        0.62800    0.96100    0.05830    1.000
    C68      C        0.02280    0.92650    0.01280    1.000
    H67      H        0.98640    0.90030    0.06330    1.000
    H68      H        0.02210    0.88890    0.94250    1.000
    C69      C        0.85060    0.98240    0.84540    1.000
    H69      H        0.81430    0.03330    0.80490    1.000
    H70      H        0.85410    0.94980    0.77190    1.000
    C70      C        0.08150    0.07550    0.15040    1.000
    H71      H        0.08150    0.11260    0.22090    1.000
    H72      H        0.11810    0.10220    0.10070    1.000
    C71      C        0.40610    0.18180    0.22960    1.000
    C72      C        0.25490    0.01830    0.31840    1.000
    H73      H        0.28930    0.96660    0.35750    1.000
    H74      H        0.25130    0.04990    0.39270    1.000
    C73      C        0.33910    0.14240    0.27910    1.000
    H75      H        0.30170    0.17240    0.31950    1.000
    C74      C        0.77080    0.85490    0.88420    1.000
    H76      H        0.80570    0.82780    0.83760    1.000
    C75      C        0.38360    0.01860    0.20610    1.000
    H77      H        0.37630    0.96230    0.19720    1.000
    C76      C        0.41760    0.26580    0.24370    1.000
    C77      C        0.46120    0.13940    0.16820    1.000
    H78      H        0.50590    0.16650    0.13510    1.000
    C78      C        0.72490    0.97710    0.96240    1.000
    H79      H        0.72730    0.03360    0.96880    1.000
    C79      C        0.69950    0.72730    0.92050    1.000
    N15      N        0.69080    0.66030    0.91310    1.000
    N16      N        0.42820    0.33430    0.25670    1.000
    C80      C        0.65660    0.85210    0.00270    1.000
    H80      H        0.61600    0.82290    0.03970    1.000
