# CIF file generated by openbabel 3.1.0, see https://openbabel.org
data_I
_chemical_name_common 'image0'
_cell_length_a 25.8561
_cell_length_b 25.8561
_cell_length_c 6.7119
_cell_angle_alpha 90
_cell_angle_beta 90
_cell_angle_gamma 120
_space_group_name_H-M_alt 'P 1'
_space_group_name_Hall 'P 1'
loop_
    _symmetry_equiv_pos_as_xyz
    x,y,z
loop_
    _atom_site_label
    _atom_site_type_symbol
    _atom_site_fract_x
    _atom_site_fract_y
    _atom_site_fract_z
    _atom_site_occupancy
    Ni1      Ni       0.38377    0.34887    0.14453    1.000
    C1       C        0.32325    0.20445    0.28777    1.000
    C2       C        0.33607    0.21763    0.08652    1.000
    C3       C        0.34615    0.17985    0.96542    1.000
    H1       H        0.35610    0.19009    0.80911    1.000
    C4       C        0.31241    0.24508    0.41801    1.000
    O1       O        0.31488    0.29103    0.34580    1.000
    O2       O        0.30086    0.23320    0.59946    1.000
    O3       O        0.33872    0.26699    0.00890    1.000
    Ni2      Ni       0.05044    0.68220    0.47786    1.000
    C5       C        0.98992    0.53778    0.62110    1.000
    C6       C        0.00274    0.55096    0.41985    1.000
    C7       C        0.01282    0.51318    0.29875    1.000
    H2       H        0.02277    0.52342    0.14244    1.000
    C8       C        0.97908    0.57841    0.75134    1.000
    O4       O        0.98155    0.62436    0.67913    1.000
    O5       O        0.96753    0.56653    0.93279    1.000
    O6       O        0.00539    0.60032    0.34223    1.000
    Ni3      Ni       0.71710    0.01554    0.81120    1.000
    C9       C        0.65658    0.87112    0.95444    1.000
    C10      C        0.66940    0.88430    0.75319    1.000
    C11      C        0.67948    0.84652    0.63209    1.000
    H3       H        0.68943    0.85676    0.47578    1.000
    C12      C        0.64574    0.91175    0.08468    1.000
    O7       O        0.64821    0.95770    0.01247    1.000
    O8       O        0.63419    0.89987    0.26613    1.000
    O9       O        0.67205    0.93366    0.67557    1.000
    Ni4      Ni       0.65113    0.03490    0.14453    1.000
    C13      C        0.79555    0.11880    0.28777    1.000
    C14      C        0.78237    0.11844    0.08652    1.000
    C15      C        0.82015    0.16630    0.96542    1.000
    H4       H        0.80991    0.16601    0.80911    1.000
    C16      C        0.75492    0.06733    0.41801    1.000
    O10      O        0.70897    0.02385    0.34580    1.000
    O11      O        0.76680    0.06766    0.59946    1.000
    O12      O        0.73301    0.07173    0.00890    1.000
    Ni5      Ni       0.31780    0.36823    0.47786    1.000
    C17      C        0.46222    0.45213    0.62110    1.000
    C18      C        0.44904    0.45177    0.41985    1.000
    C19      C        0.48682    0.49963    0.29875    1.000
    H5       H        0.47658    0.49934    0.14244    1.000
    C20      C        0.42159    0.40066    0.75134    1.000
    O13      O        0.37564    0.35718    0.67913    1.000
    O14      O        0.43347    0.40099    0.93279    1.000
    O15      O        0.39968    0.40506    0.34223    1.000
    Ni6      Ni       0.98446    0.70157    0.81120    1.000
    C21      C        0.12888    0.78547    0.95444    1.000
    C22      C        0.11570    0.78511    0.75319    1.000
    C23      C        0.15348    0.83297    0.63209    1.000
    H6       H        0.14324    0.83268    0.47578    1.000
    C24      C        0.08825    0.73400    0.08468    1.000
    O16      O        0.04230    0.69052    0.01247    1.000
    O17      O        0.10013    0.73433    0.26613    1.000
    O18      O        0.06634    0.73840    0.67557    1.000
    Ni7      Ni       0.96510    0.61623    0.14453    1.000
    C25      C        0.88120    0.67675    0.28777    1.000
    C26      C        0.88156    0.66393    0.08652    1.000
    C27      C        0.83370    0.65385    0.96542    1.000
    H7       H        0.83399    0.64390    0.80911    1.000
    C28      C        0.93267    0.68759    0.41801    1.000
    O19      O        0.97615    0.68512    0.34580    1.000
    O20      O        0.93234    0.69914    0.59946    1.000
    O21      O        0.92827    0.66128    0.00890    1.000
    Ni8      Ni       0.63177    0.94956    0.47786    1.000
    C29      C        0.54787    0.01008    0.62110    1.000
    C30      C        0.54823    0.99726    0.41985    1.000
    C31      C        0.50037    0.98718    0.29875    1.000
    H8       H        0.50066    0.97723    0.14244    1.000
    C32      C        0.59934    0.02092    0.75134    1.000
    O22      O        0.64282    0.01845    0.67913    1.000
    O23      O        0.59901    0.03247    0.93279    1.000
    O24      O        0.59494    0.99461    0.34223    1.000
    Ni9      Ni       0.29843    0.28290    0.81120    1.000
    C33      C        0.21453    0.34342    0.95444    1.000
    C34      C        0.21489    0.33060    0.75319    1.000
    C35      C        0.16703    0.32052    0.63209    1.000
    H9       H        0.16732    0.31057    0.47578    1.000
    C36      C        0.26600    0.35426    0.08468    1.000
    O25      O        0.30948    0.35179    0.01247    1.000
    O26      O        0.26567    0.36581    0.26613    1.000
    O27      O        0.26160    0.32795    0.67557    1.000
    Ni10     Ni       0.61623    0.65113    0.85547    1.000
    C37      C        0.67675    0.79555    0.71223    1.000
    C38      C        0.66393    0.78237    0.91348    1.000
    C39      C        0.65385    0.82015    0.03458    1.000
    H10      H        0.64390    0.80991    0.19089    1.000
    C40      C        0.68759    0.75492    0.58199    1.000
    O28      O        0.68512    0.70897    0.65420    1.000
    O29      O        0.69914    0.76680    0.40054    1.000
    O30      O        0.66128    0.73301    0.99110    1.000
    Ni11     Ni       0.28290    0.98446    0.18880    1.000
    C41      C        0.34342    0.12888    0.04556    1.000
    C42      C        0.33060    0.11570    0.24681    1.000
    C43      C        0.32052    0.15348    0.36791    1.000
    H11      H        0.31057    0.14324    0.52422    1.000
    C44      C        0.35426    0.08825    0.91532    1.000
    O31      O        0.35179    0.04230    0.98753    1.000
    O32      O        0.36581    0.10013    0.73387    1.000
    O33      O        0.32795    0.06634    0.32443    1.000
    Ni12     Ni       0.94956    0.31780    0.52214    1.000
    C45      C        0.01008    0.46222    0.37890    1.000
    C46      C        0.99726    0.44904    0.58015    1.000
    C47      C        0.98718    0.48682    0.70125    1.000
    H12      H        0.97723    0.47658    0.85756    1.000
    C48      C        0.02092    0.42159    0.24866    1.000
    O34      O        0.01845    0.37564    0.32087    1.000
    O35      O        0.03247    0.43347    0.06721    1.000
    O36      O        0.99461    0.39968    0.65777    1.000
    Ni13     Ni       0.34887    0.96510    0.85547    1.000
    C49      C        0.20445    0.88120    0.71223    1.000
    C50      C        0.21763    0.88156    0.91348    1.000
    C51      C        0.17985    0.83370    0.03458    1.000
    H13      H        0.19009    0.83399    0.19089    1.000
    C52      C        0.24508    0.93267    0.58199    1.000
    O37      O        0.29103    0.97615    0.65420    1.000
    O38      O        0.23320    0.93234    0.40054    1.000
    O39      O        0.26699    0.92827    0.99110    1.000
    Ni14     Ni       0.01554    0.29843    0.18880    1.000
    C53      C        0.87112    0.21453    0.04556    1.000
    C54      C        0.88430    0.21489    0.24681    1.000
    C55      C        0.84652    0.16703    0.36791    1.000
    H14      H        0.85676    0.16732    0.52422    1.000
    C56      C        0.91175    0.26600    0.91532    1.000
    O40      O        0.95770    0.30948    0.98753    1.000
    O41      O        0.89987    0.26567    0.73387    1.000
    O42      O        0.93366    0.26160    0.32443    1.000
    Ni15     Ni       0.68220    0.63177    0.52214    1.000
    C57      C        0.53778    0.54787    0.37890    1.000
    C58      C        0.55096    0.54823    0.58015    1.000
    C59      C        0.51318    0.50037    0.70125    1.000
    H15      H        0.52342    0.50066    0.85756    1.000
    C60      C        0.57841    0.59934    0.24866    1.000
    O43      O        0.62436    0.64282    0.32087    1.000
    O44      O        0.56653    0.59901    0.06721    1.000
    O45      O        0.60032    0.59494    0.65777    1.000
    Ni16     Ni       0.03490    0.38377    0.85547    1.000
    C61      C        0.11880    0.32325    0.71223    1.000
    C62      C        0.11844    0.33607    0.91348    1.000
    C63      C        0.16630    0.34615    0.03458    1.000
    H16      H        0.16601    0.35610    0.19089    1.000
    C64      C        0.06733    0.31241    0.58199    1.000
    O46      O        0.02385    0.31488    0.65420    1.000
    O47      O        0.06766    0.30086    0.40054    1.000
    O48      O        0.07173    0.33872    0.99110    1.000
    Ni17     Ni       0.70157    0.71710    0.18880    1.000
    C65      C        0.78547    0.65658    0.04556    1.000
    C66      C        0.78511    0.66940    0.24681    1.000
    C67      C        0.83297    0.67948    0.36791    1.000
    H17      H        0.83268    0.68943    0.52422    1.000
    C68      C        0.73400    0.64574    0.91532    1.000
    O49      O        0.69052    0.64821    0.98753    1.000
    O50      O        0.73433    0.63419    0.73387    1.000
    O51      O        0.73840    0.67205    0.32443    1.000
    Ni18     Ni       0.36823    0.05044    0.52214    1.000
    C69      C        0.45213    0.98992    0.37890    1.000
    C70      C        0.45177    0.00274    0.58015    1.000
    C71      C        0.49963    0.01282    0.70125    1.000
    H18      H        0.49934    0.02277    0.85756    1.000
    C72      C        0.40066    0.97908    0.24866    1.000
    O52      O        0.35718    0.98155    0.32087    1.000
    O53      O        0.40099    0.96753    0.06721    1.000
    O54      O        0.40506    0.00539    0.65777    1.000
