# CIF file generated by openbabel 3.1.0, see https://openbabel.org
data_I
_chemical_name_common 'TISLIR_clean'
_cell_length_a 8.5173
_cell_length_b 9.7615
_cell_length_c 22.4055
_cell_angle_alpha 90
_cell_angle_beta 90
_cell_angle_gamma 92.285
_space_group_name_H-M_alt 'P 1'
_space_group_name_Hall 'P 1'
loop_
    _symmetry_equiv_pos_as_xyz
    x,y,z
loop_
    _atom_site_label
    _atom_site_type_symbol
    _atom_site_fract_x
    _atom_site_fract_y
    _atom_site_fract_z
    _atom_site_occupancy
    Cd1      Cd       0.64250    0.98226    0.34782    1.000
    Cd2      Cd       0.32982    0.72573    0.39793    1.000
    Cd3      Cd       0.35750    0.51774    0.84782    1.000
    Cd4      Cd       0.67018    0.77427    0.89793    1.000
    Cd5      Cd       0.35750    0.01774    0.65218    1.000
    Cd6      Cd       0.67018    0.27427    0.60207    1.000
    Cd7      Cd       0.64250    0.48226    0.15218    1.000
    Cd8      Cd       0.32982    0.22573    0.10207    1.000
    Cd9      Cd       0.00000    0.50000    0.50000    1.000
    Cd10     Cd       0.00000    0.00000    0.00000    1.000
    H1       H        0.92730    0.81550    0.43390    1.000
    H2       H        0.38190    0.02600    0.23270    1.000
    H3       H        0.69010    0.30240    0.28360    1.000
    H4       H        0.61830    0.52800    0.47000    1.000
    H5       H        0.12670    0.16490    0.36420    1.000
    H6       H        0.30460    0.19510    0.34950    1.000
    H7       H        0.24770    0.19240    0.41600    1.000
    H8       H        0.07270    0.68450    0.93390    1.000
    H9       H        0.61810    0.47400    0.73270    1.000
    H10      H        0.30990    0.19760    0.78360    1.000
    H11      H        0.38170    0.97200    0.97000    1.000
    H12      H        0.87330    0.33510    0.86420    1.000
    H13      H        0.69540    0.30490    0.84950    1.000
    H14      H        0.75230    0.30760    0.91600    1.000
    H15      H        0.07270    0.18450    0.56610    1.000
    H16      H        0.61810    0.97400    0.76730    1.000
    H17      H        0.30990    0.69760    0.71640    1.000
    H18      H        0.38170    0.47200    0.53000    1.000
    H19      H        0.87330    0.83510    0.63580    1.000
    H20      H        0.69540    0.80490    0.65050    1.000
    H21      H        0.75230    0.80760    0.58400    1.000
    H22      H        0.92730    0.31550    0.06610    1.000
    H23      H        0.38190    0.52600    0.26730    1.000
    H24      H        0.69010    0.80240    0.21640    1.000
    H25      H        0.61830    0.02800    0.03000    1.000
    H26      H        0.12670    0.66490    0.13580    1.000
    H27      H        0.30460    0.69510    0.15050    1.000
    H28      H        0.24770    0.69240    0.08400    1.000
    C1       C        0.83270    0.76490    0.43650    1.000
    C2       C        0.83070    0.25450    0.41480    1.000
    C3       C        0.67870    0.14120    0.47030    1.000
    C4       C        0.44430    0.10620    0.23462    1.000
    C5       C        0.61150    0.25550    0.26210    1.000
    C6       C        0.66540    0.60960    0.45620    1.000
    C7       C        0.23250    0.15210    0.37730    1.000
    C8       C        0.26110    0.00170    0.38050    1.000
    C9       C        0.16730    0.73510    0.93650    1.000
    C10      C        0.16930    0.24550    0.91480    1.000
    C11      C        0.32130    0.35880    0.97030    1.000
    C12      C        0.55570    0.39380    0.73462    1.000
    C13      C        0.38850    0.24450    0.76210    1.000
    C14      C        0.33460    0.89040    0.95620    1.000
    C15      C        0.76750    0.34790    0.87730    1.000
    C16      C        0.73890    0.49830    0.88050    1.000
    C17      C        0.16730    0.23510    0.56350    1.000
    C18      C        0.16930    0.74550    0.58520    1.000
    C19      C        0.32130    0.85880    0.52970    1.000
    C20      C        0.55570    0.89380    0.76538    1.000
    C21      C        0.38850    0.74450    0.73790    1.000
    C22      C        0.33460    0.39040    0.54380    1.000
    C23      C        0.76750    0.84790    0.62270    1.000
    C24      C        0.73890    0.99830    0.61950    1.000
    C25      C        0.83270    0.26490    0.06350    1.000
    C26      C        0.83070    0.75450    0.08520    1.000
    C27      C        0.67870    0.64120    0.02970    1.000
    C28      C        0.44430    0.60620    0.26538    1.000
    C29      C        0.61150    0.75550    0.23790    1.000
    C30      C        0.66540    0.10960    0.04380    1.000
    C31      C        0.23250    0.65210    0.12270    1.000
    C32      C        0.26110    0.50170    0.11950    1.000
    N1       N        0.55380    0.13000    0.27676    1.000
    N2       N        0.72890    0.14740    0.41399    1.000
    N3       N        0.81840    0.64200    0.46229    1.000
    N4       N        0.84340    0.31310    0.46799    1.000
    N5       N        0.69830    0.80740    0.41506    1.000
    N6       N        0.58760    0.70630    0.42835    1.000
    N7       N        0.43400    0.20720    0.19650    1.000
    N8       N        0.74420    0.23890    0.50445    1.000
    N9       N        0.54490    0.30540    0.21392    1.000
    N10      N        0.44620    0.37000    0.77676    1.000
    N11      N        0.27110    0.35260    0.91399    1.000
    N12      N        0.18160    0.85800    0.96229    1.000
    N13      N        0.15660    0.18690    0.96799    1.000
    N14      N        0.30170    0.69260    0.91506    1.000
    N15      N        0.41240    0.79370    0.92835    1.000
    N16      N        0.56600    0.29280    0.69650    1.000
    N17      N        0.25580    0.26110    0.00445    1.000
    N18      N        0.45510    0.19460    0.71392    1.000
    N19      N        0.44620    0.87000    0.72324    1.000
    N20      N        0.27110    0.85260    0.58601    1.000
    N21      N        0.18160    0.35800    0.53771    1.000
    N22      N        0.15660    0.68690    0.53201    1.000
    N23      N        0.30170    0.19260    0.58494    1.000
    N24      N        0.41240    0.29370    0.57165    1.000
    N25      N        0.56600    0.79280    0.80350    1.000
    N26      N        0.25580    0.76110    0.49555    1.000
    N27      N        0.45510    0.69460    0.78608    1.000
    N28      N        0.55380    0.63000    0.22324    1.000
    N29      N        0.72890    0.64740    0.08601    1.000
    N30      N        0.81840    0.14200    0.03771    1.000
    N31      N        0.84340    0.81310    0.03201    1.000
    N32      N        0.69830    0.30740    0.08494    1.000
    N33      N        0.58760    0.20630    0.07165    1.000
    N34      N        0.43400    0.70720    0.30350    1.000
    N35      N        0.74420    0.73890    0.99555    1.000
    N36      N        0.54490    0.80540    0.28608    1.000
    Cl1      Cl       0.15904    0.50857    0.39220    1.000
    Cl2      Cl       0.84096    0.99143    0.89220    1.000
    Cl3      Cl       0.84096    0.49143    0.60780    1.000
    Cl4      Cl       0.15904    0.00857    0.10780    1.000
    O1       O        0.15420    0.91530    0.36841    1.000
    O2       O        0.39540    0.96470    0.39689    1.000
    O3       O        0.84580    0.58470    0.86841    1.000
    O4       O        0.60460    0.53530    0.89689    1.000
    O5       O        0.84580    0.08470    0.63159    1.000
    O6       O        0.60460    0.03530    0.60311    1.000
    O7       O        0.15420    0.41530    0.13159    1.000
    O8       O        0.39540    0.46470    0.10311    1.000
