# CIF file generated by openbabel 3.1.0, see https://openbabel.org
data_I
_chemical_name_common 'image0'
_cell_length_a 21.43
_cell_length_b 21.43
_cell_length_c 16.89
_cell_angle_alpha 90
_cell_angle_beta 90
_cell_angle_gamma 120
_space_group_name_H-M_alt 'P 1'
_space_group_name_Hall 'P 1'
loop_
    _symmetry_equiv_pos_as_xyz
    x,y,z
loop_
    _atom_site_label
    _atom_site_type_symbol
    _atom_site_fract_x
    _atom_site_fract_y
    _atom_site_fract_z
    _atom_site_occupancy
    O1       O        0.95877    0.14560    0.07304    1.000
    O2       O        0.04102    0.14184    0.15560    1.000
    C1       C        0.00100    0.45600    0.32800    1.000
    C2       C        0.99600    0.46670    0.24900    1.000
    C3       C        0.99860    0.39080    0.34740    1.000
    C4       C        0.00200    0.37000    0.42500    1.000
    C5       C        0.00400    0.31400    0.45992    1.000
    C6       C        0.00191    0.33957    0.28501    1.000
    C7       C        0.94850    0.30352    0.22651    1.000
    C8       C        0.94851    0.24952    0.17722    1.000
    C9       C        0.05508    0.31899    0.29108    1.000
    C10      C        0.00069    0.16911    0.13455    1.000
    C11      C        0.00117    0.22841    0.18506    1.000
    C12      C        0.05478    0.26501    0.24262    1.000
    Zr1      Zr       0.92834    0.92614    0.09253    1.000
    O3       O        0.82917    0.83005    0.08285    1.000
    O4       O        0.87554    0.86613    0.19296    1.000
    C13      C        0.54400    0.54500    0.32800    1.000
    C14      C        0.53330    0.52930    0.24900    1.000
    C15      C        0.60920    0.60780    0.34740    1.000
    C16      C        0.63000    0.63200    0.42500    1.000
    C17      C        0.68600    0.69000    0.45992    1.000
    C18      C        0.66077    0.65229    0.28694    1.000
    C19      C        0.73149    0.66607    0.29329    1.000
    C20      C        0.78432    0.71823    0.24623    1.000
    C21      C        0.64201    0.68815    0.23089    1.000
    C22      C        0.82311    0.81731    0.15546    1.000
    C23      C        0.76599    0.75530    0.19214    1.000
    C24      C        0.69508    0.73986    0.18267    1.000
    O5       O        0.15119    0.96342    0.07203    1.000
    C25      C        0.45301    0.00142    0.32939    1.000
    C26      C        0.47070    0.00400    0.24900    1.000
    C27      C        0.39220    0.00140    0.34740    1.000
    C28      C        0.36800    0.99800    0.42500    1.000
    C29      C        0.31000    0.99600    0.45992    1.000
    C30      C        0.34393    0.00676    0.28802    1.000
    C31      C        0.30766    0.04556    0.30529    1.000
    C32      C        0.25450    0.04565    0.25586    1.000
    C33      C        0.32403    0.96933    0.21466    1.000
    C34      C        0.17329    0.00479    0.13389    1.000
    C35      C        0.23325    0.00646    0.18486    1.000
    C36      C        0.27007    0.96910    0.16459    1.000
    O6       O        0.04427    0.85486    0.07251    1.000
    C37      C        0.99900    0.54400    0.32800    1.000
    C38      C        0.00400    0.53330    0.24900    1.000
    C39      C        0.00140    0.60920    0.34740    1.000
    C40      C        0.99800    0.63000    0.42500    1.000
    C41      C        0.99600    0.68600    0.45992    1.000
    C42      C        0.99902    0.66069    0.28492    1.000
    C43      C        0.05266    0.69604    0.22645    1.000
    C44      C        0.05335    0.75012    0.17676    1.000
    C45      C        0.94644    0.68198    0.29071    1.000
    C46      C        0.00203    0.83113    0.13362    1.000
    C47      C        0.00118    0.77187    0.18429    1.000
    C48      C        0.94750    0.73603    0.24190    1.000
    Zr2      Zr       0.07378    0.07408    0.09276    1.000
    O7       O        0.16849    0.17409    0.08207    1.000
    C49      C        0.45600    0.45500    0.32800    1.000
    C50      C        0.46670    0.47070    0.24900    1.000
    C51      C        0.39080    0.39220    0.34740    1.000
    C52      C        0.37000    0.36800    0.42500    1.000
    C53      C        0.31400    0.31000    0.45992    1.000
    C54      C        0.34485    0.34267    0.28674    1.000
    C55      C        0.30264    0.36039    0.23912    1.000
    C56      C        0.25095    0.30803    0.19029    1.000
    C57      C        0.33769    0.27432    0.28417    1.000
    C58      C        0.18092    0.18125    0.15468    1.000
    C59      C        0.24243    0.23915    0.19061    1.000
    C60      C        0.28578    0.22216    0.23637    1.000
    O8       O        0.85839    0.95629    0.15564    1.000
    O9       O        0.85177    0.03681    0.07286    1.000
    C61      C        0.54500    0.00100    0.32800    1.000
    C62      C        0.52930    0.99600    0.24900    1.000
    C63      C        0.60780    0.99860    0.34740    1.000
    C64      C        0.63200    0.00200    0.42500    1.000
    C65      C        0.69000    0.00400    0.45992    1.000
    C66      C        0.65819    0.99325    0.28518    1.000
    C67      C        0.68257    0.94327    0.29531    1.000
    C68      C        0.73662    0.94343    0.24682    1.000
    C69      C        0.69071    0.04330    0.22279    1.000
    C70      C        0.82940    0.99515    0.13461    1.000
    C71      C        0.76964    0.99385    0.18533    1.000
    C72      C        0.74475    0.04320    0.17371    1.000
    O10      O        0.04454    0.85505    0.92816    1.000
    O11      O        0.96188    0.85843    0.84620    1.000
    C73      C        0.99900    0.54400    0.67200    1.000
    C74      C        0.00400    0.53330    0.75100    1.000
    C75      C        0.00140    0.60920    0.65260    1.000
    C76      C        0.99800    0.63000    0.57500    1.000
    C77      C        0.99600    0.68600    0.54008    1.000
    C78      C        0.99919    0.66085    0.71513    1.000
    C79      C        0.05261    0.69584    0.77395    1.000
    C80      C        0.05343    0.74996    0.82375    1.000
    C81      C        0.94698    0.68263    0.70918    1.000
    C82      C        0.00243    0.83139    0.86690    1.000
    C83      C        0.00160    0.77216    0.81606    1.000
    C84      C        0.94816    0.73670    0.75809    1.000
    Zr3      Zr       0.07401    0.07395    0.90828    1.000
    O12      O        0.17402    0.16894    0.91712    1.000
    O13      O        0.12590    0.13366    0.80755    1.000
    C85      C        0.45600    0.45500    0.67200    1.000
    C86      C        0.46670    0.47070    0.75100    1.000
    C87      C        0.39080    0.39220    0.65260    1.000
    C88      C        0.37000    0.36800    0.57500    1.000
    C89      C        0.31400    0.31000    0.54008    1.000
    C90      C        0.33973    0.34750    0.71305    1.000
    C91      C        0.26887    0.33329    0.70717    1.000
    C92      C        0.21656    0.28081    0.75427    1.000
    C93      C        0.35923    0.31191    0.76864    1.000
    C94      C        0.17906    0.18192    0.84463    1.000
    C95      C        0.23561    0.24394    0.80780    1.000
    C96      C        0.30668    0.25989    0.81690    1.000
    O14      O        0.85856    0.95638    0.84503    1.000
    O15      O        0.85188    0.03691    0.92782    1.000
    C97      C        0.54500    0.00100    0.67200    1.000
    C98      C        0.52930    0.99600    0.75100    1.000
    C99      C        0.60780    0.99860    0.65260    1.000
    C100     C        0.63200    0.00200    0.57500    1.000
    C101     C        0.69000    0.00400    0.54008    1.000
    C102     C        0.65832    0.99335    0.71490    1.000
    C103     C        0.68290    0.94351    0.70480    1.000
    C104     C        0.73695    0.94371    0.75342    1.000
    C105     C        0.69073    0.04333    0.77742    1.000
    C106     C        0.82958    0.99530    0.86598    1.000
    C107     C        0.76984    0.99403    0.81506    1.000
    C108     C        0.74478    0.04328    0.82661    1.000
    O16      O        0.95811    0.14564    0.92858    1.000
    O17      O        0.04111    0.14258    0.84687    1.000
    C109     C        0.00100    0.45600    0.67200    1.000
    C110     C        0.99600    0.46670    0.75100    1.000
    C111     C        0.99860    0.39080    0.65260    1.000
    C112     C        0.00200    0.37000    0.57500    1.000
    C113     C        0.00400    0.31400    0.54008    1.000
    C114     C        0.00155    0.33935    0.71519    1.000
    C115     C        0.94884    0.30450    0.77476    1.000
    C116     C        0.94876    0.25069    0.82460    1.000
    C117     C        0.05384    0.31765    0.70870    1.000
    C118     C        0.00029    0.16942    0.86737    1.000
    C119     C        0.00064    0.22855    0.81638    1.000
    C120     C        0.05340    0.26388    0.75767    1.000
    Zr4      Zr       0.92852    0.92619    0.90814    1.000
    O18      O        0.82968    0.82964    0.91756    1.000
    O19      O        0.87565    0.86655    0.80747    1.000
    C121     C        0.54400    0.54500    0.67200    1.000
    C122     C        0.53330    0.52930    0.75100    1.000
    C123     C        0.60920    0.60780    0.65260    1.000
    C124     C        0.63000    0.63200    0.57500    1.000
    C125     C        0.68600    0.69000    0.54008    1.000
    C126     C        0.66093    0.65231    0.71307    1.000
    C127     C        0.73179    0.66653    0.70625    1.000
    C128     C        0.78467    0.71870    0.75330    1.000
    C129     C        0.64218    0.68779    0.76962    1.000
    C130     C        0.82343    0.81734    0.84485    1.000
    C131     C        0.76632    0.75537    0.80792    1.000
    C132     C        0.69530    0.73949    0.81785    1.000
    O20      O        0.14334    0.04266    0.84527    1.000
    O21      O        0.15249    0.96520    0.93056    1.000
    C133     C        0.45450    0.00436    0.67052    1.000
    C134     C        0.47070    0.00400    0.75100    1.000
    C135     C        0.39220    0.00140    0.65260    1.000
    C136     C        0.36800    0.99800    0.57500    1.000
    C137     C        0.31000    0.99600    0.54008    1.000
    C138     C        0.33991    0.00016    0.71253    1.000
    C139     C        0.35744    0.03185    0.78933    1.000
    C140     C        0.30479    0.03374    0.84021    1.000
    C141     C        0.26527    0.96864    0.69379    1.000
    C142     C        0.17393    0.00568    0.86806    1.000
    C143     C        0.23188    0.00475    0.81665    1.000
    C144     C        0.21338    0.97107    0.74283    1.000
    Zr5      Zr       0.06147    0.94333    0.00055    1.000
    Zr6      Zr       0.94113    0.05712    0.00051    1.000
    N1       N        0.00000    0.50000    0.38400    1.000
    N2       N        0.50000    0.50000    0.38400    1.000
    N3       N        0.50000    0.00000    0.38400    1.000
    N4       N        0.00000    0.50000    0.61600    1.000
    N5       N        0.50000    0.50000    0.61600    1.000
    N6       N        0.50000    0.00000    0.61600    1.000
    N7       N        0.01000    0.41600    0.50000    1.000
    N8       N        0.58400    0.59400    0.50000    1.000
    N9       N        0.40600    0.99000    0.50000    1.000
    N10      N        0.99000    0.58400    0.50000    1.000
    N11      N        0.41600    0.40600    0.50000    1.000
    N12      N        0.59400    0.01000    0.50000    1.000
    Fe1      Fe       0.00000    0.50000    0.50000    1.000
    Fe2      Fe       0.50000    0.50000    0.50000    1.000
    Fe3      Fe       0.50000    0.00000    0.50000    1.000
    O22      O        0.96146    0.85813    0.15430    1.000
    O23      O        0.14370    0.04309    0.15513    1.000
    O24      O        0.13279    0.12886    0.19285    1.000
    O25      O        0.96558    0.03376    0.11655    1.000
    O26      O        0.87474    0.94295    0.00029    1.000
    O27      O        0.94762    0.87412    0.00037    1.000
    O28      O        0.12761    0.05744    0.00073    1.000
    O29      O        0.03686    0.96645    0.88454    1.000
    O30      O        0.05494    0.12616    0.00039    1.000
    O31      O        0.03657    0.96649    0.11623    1.000
    O32      O        0.96580    0.03379    0.88460    1.000
    H1       H        0.98722    0.42302    0.20453    1.000
    H2       H        0.00554    0.27081    0.42195    1.000
    H3       H        0.89394    0.27821    0.25741    1.000
    H4       H        0.95319    0.34945    0.18816    1.000
    H5       H        0.95025    0.26724    0.11323    1.000
    H6       H        0.89575    0.19667    0.18537    1.000
    H7       H        0.10035    0.34624    0.33633    1.000
    H8       H        0.04631    0.21120    0.09655    1.000
    H9       H        0.09871    0.25022    0.24970    1.000
    H10      H        0.57698    0.56419    0.20453    1.000
    H11      H        0.72919    0.73473    0.42195    1.000
    H12      H        0.74516    0.63426    0.33717    1.000
    H13      H        0.84244    0.73064    0.25186    1.000
    H14      H        0.58360    0.67477    0.22519    1.000
    H15      H        0.68035    0.76893    0.13624    1.000
    H16      H        0.43682    0.01154    0.20205    1.000
    H17      H        0.26527    0.99446    0.42195    1.000
    H18      H        0.32100    0.07900    0.36174    1.000
    H19      H        0.22773    0.07812    0.27333    1.000
    H20      H        0.35256    0.93882    0.19611    1.000
    H21      H        0.25543    0.93820    0.10626    1.000
    H22      H        0.01225    0.56339    0.19080    1.000
    H23      H        0.99446    0.72919    0.42195    1.000
    H24      H        0.10714    0.72098    0.25748    1.000
    H25      H        0.04751    0.64973    0.18844    1.000
    H26      H        0.05145    0.73205    0.11289    1.000
    H27      H        0.10641    0.80269    0.18479    1.000
    H28      H        0.90113    0.65525    0.33599    1.000
    H29      H        0.90409    0.75158    0.24869    1.000
    H30      H        0.43661    0.44885    0.19080    1.000
    H31      H        0.27081    0.26527    0.42195    1.000
    H32      H        0.31094    0.41723    0.24076    1.000
    H33      H        0.21629    0.32166    0.15077    1.000
    H34      H        0.37464    0.26208    0.32144    1.000
    H35      H        0.27876    0.16582    0.23466    1.000
    H36      H        0.55115    0.98775    0.19080    1.000
    H37      H        0.73473    0.00554    0.42195    1.000
    H38      H        0.65854    0.90082    0.34396    1.000
    H39      H        0.75437    0.90203    0.25715    1.000
    H40      H        0.67268    0.08445    0.21221    1.000
    H41      H        0.78770    0.94880    0.09706    1.000
    H42      H        0.76932    0.08370    0.12326    1.000
    H43      H        0.01278    0.57698    0.79547    1.000
    H44      H        0.99438    0.73124    0.57383    1.000
    H45      H        0.09567    0.67985    0.78104    1.000
    H46      H        0.09661    0.77660    0.87132    1.000
    H47      H        0.90183    0.65630    0.66366    1.000
    H48      H        0.90503    0.75261    0.75110    1.000
    H49      H        0.42302    0.43581    0.79547    1.000
    H50      H        0.26876    0.26314    0.57383    1.000
    H51      H        0.25477    0.36503    0.66366    1.000
    H52      H        0.15827    0.26796    0.74915    1.000
    H53      H        0.41783    0.32581    0.77388    1.000
    H54      H        0.32197    0.23102    0.86301    1.000
    H55      H        0.56419    0.98722    0.79547    1.000
    H56      H        0.73686    0.00562    0.57383    1.000
    H57      H        0.65906    0.90112    0.65607    1.000
    H58      H        0.75483    0.90241    0.74308    1.000
    H59      H        0.67258    0.08439    0.78800    1.000
    H60      H        0.76923    0.08374    0.87711    1.000
    H61      H        0.94079    0.42542    0.77496    1.000
    H62      H        0.04074    0.46694    0.78776    1.000
    H63      H        0.00562    0.26876    0.57383    1.000
    H64      H        0.90573    0.32035    0.78243    1.000
    H65      H        0.90611    0.22418    0.87273    1.000
    H66      H        0.09853    0.34378    0.66265    1.000
    H67      H        0.04553    0.21174    0.90558    1.000
    H68      H        0.09660    0.24813    0.75011    1.000
    H69      H        0.56339    0.55115    0.80920    1.000
    H70      H        0.73124    0.73686    0.57383    1.000
    H71      H        0.74556    0.63507    0.66199    1.000
    H72      H        0.84286    0.73146    0.74723    1.000
    H73      H        0.58371    0.67413    0.77576    1.000
    H74      H        0.68053    0.76822    0.86468    1.000
    H75      H        0.43595    0.00983    0.79823    1.000
    H76      H        0.26314    0.99438    0.57383    1.000
    H77      H        0.41503    0.05690    0.81233    1.000
    H78      H        0.32105    0.05906    0.90154    1.000
    H79      H        0.24865    0.93989    0.63421    1.000
    H80      H        0.15495    0.94520    0.72245    1.000
