# CIF file generated by openbabel 3.1.0, see https://openbabel.org
data_I
_chemical_name_common 'ETEJIX01_clean'
_cell_length_a 10.434
_cell_length_b 11.163
_cell_length_c 12.422
_cell_angle_alpha 102.676
_cell_angle_beta 106.313
_cell_angle_gamma 99.415
_space_group_name_H-M_alt 'P 1'
_space_group_name_Hall 'P 1'
loop_
    _symmetry_equiv_pos_as_xyz
    x,y,z
loop_
    _atom_site_label
    _atom_site_type_symbol
    _atom_site_fract_x
    _atom_site_fract_y
    _atom_site_fract_z
    _atom_site_occupancy
    La1      La       0.40366    0.45694    0.81635    1.000
    La2      La       0.59634    0.54306    0.18365    1.000
    H1       H        0.11000    0.44580    0.86730    1.000
    H2       H        0.48890    0.85320    0.83180    1.000
    H3       H        0.89000    0.55420    0.13270    1.000
    H4       H        0.51110    0.14680    0.16820    1.000
    C1       C        0.14070    0.01150    0.51490    1.000
    C2       C        0.07430    0.54940    0.11870    1.000
    C3       C        0.95700    0.09950    0.55720    1.000
    C4       C        0.06520    0.46820    0.92090    1.000
    C5       C        0.09530    0.11140    0.57230    1.000
    C6       C        0.52870    0.88310    0.00650    1.000
    C7       C        0.29470    0.53860    0.07800    1.000
    C8       C        0.14320    0.51880    0.03950    1.000
    C9       C        0.19800    0.23010    0.64560    1.000
    C10      C        0.55590    0.75640    0.00820    1.000
    C11      C        0.49350    0.91250    0.89930    1.000
    C12      C        0.53420    0.97250    0.10770    1.000
    C13      C        0.85930    0.98850    0.48510    1.000
    C14      C        0.92570    0.45060    0.88130    1.000
    C15      C        0.04300    0.90050    0.44280    1.000
    C16      C        0.93480    0.53180    0.07910    1.000
    C17      C        0.90470    0.88860    0.42770    1.000
    C18      C        0.47130    0.11690    0.99350    1.000
    C19      C        0.70530    0.46140    0.92200    1.000
    C20      C        0.85680    0.48120    0.96050    1.000
    C21      C        0.80200    0.76990    0.35440    1.000
    C22      C        0.44410    0.24360    0.99180    1.000
    C23      C        0.50650    0.08750    0.10070    1.000
    C24      C        0.46580    0.02750    0.89230    1.000
    O1       O        0.14260    0.59780    0.23650    1.000
    O2       O        0.53880    0.67710    0.91240    1.000
    O3       O        0.59640    0.73350    0.10760    1.000
    O4       O        0.32190    0.24600    0.64820    1.000
    O5       O        0.16040    0.31580    0.70800    1.000
    O6       O        0.56870    0.95270    0.21620    1.000
    O7       O        0.35570    0.51870    0.00230    1.000
    O8       O        0.36200    0.57630    0.18570    1.000
    O9       O        0.89910    0.19060    0.60350    1.000
    O10      O        0.85740    0.40220    0.76350    1.000
    O11      O        0.46120    0.32290    0.08760    1.000
    O12      O        0.40360    0.26650    0.89240    1.000
    O13      O        0.67810    0.75400    0.35180    1.000
    O14      O        0.83960    0.68420    0.29200    1.000
    O15      O        0.43130    0.04730    0.78380    1.000
    O16      O        0.64430    0.48130    0.99770    1.000
    O17      O        0.63800    0.42370    0.81430    1.000
    O18      O        0.10090    0.80940    0.39650    1.000
