# CIF file generated by openbabel 3.1.0, see https://openbabel.org
data_I
_chemical_name_common 'image0'
_cell_length_a 30.644
_cell_length_b 15.6647
_cell_length_c 22.023
_cell_angle_alpha 90
_cell_angle_beta 133.135
_cell_angle_gamma 90
_space_group_name_H-M_alt 'P 1'
_space_group_name_Hall 'P 1'
loop_
    _symmetry_equiv_pos_as_xyz
    x,y,z
loop_
    _atom_site_label
    _atom_site_type_symbol
    _atom_site_fract_x
    _atom_site_fract_y
    _atom_site_fract_z
    _atom_site_occupancy
    Pr1      Pr       0.33127    0.87141    0.48605    1.000
    Pr2      Pr       0.61052    0.86318    0.67293    1.000
    O1       O        0.25300    0.76790    0.37230    1.000
    O2       O        0.22360    0.65170    0.29460    1.000
    O3       O        0.44050    0.85640    0.56940    1.000
    O4       O        0.52030    0.78390    0.61360    1.000
    O5       O        0.63410    0.97290    0.61760    1.000
    O6       O        0.67410    0.09670    0.62630    1.000
    O7       O        0.62250    0.88350    0.79520    1.000
    O8       O        0.65710    0.95350    0.90860    1.000
    N1       N        0.36670    0.73390    0.46400    1.000
    N2       N        0.66180    0.00140    0.75780    1.000
    C1       C        0.32770    0.67600    0.40680    1.000
    C2       C        0.34610    0.60080    0.39590    1.000
    H1       H        0.31750    0.56090    0.35410    1.000
    C3       C        0.40680    0.58550    0.44690    1.000
    H2       H        0.42050    0.53400    0.44180    1.000
    C4       C        0.44690    0.64550    0.50490    1.000
    H3       H        0.48860    0.63650    0.53960    1.000
    C5       C        0.42580    0.71980    0.51240    1.000
    C6       C        0.26320    0.69940    0.35400    1.000
    C7       C        0.46550    0.79120    0.57000    1.000
    C8       C        0.68490    0.05490    0.73900    1.000
    C9       C        0.72600    0.11740    0.79320    1.000
    H4       H        0.74460    0.15140    0.78060    1.000
    C10      C        0.73900    0.12880    0.86670    1.000
    H5       H        0.76590    0.17210    0.90500    1.000
    C11      C        0.71240    0.07660    0.88320    1.000
    H6       H        0.71990    0.08470    0.93250    1.000
    C12      C        0.67470    0.01250    0.82860    1.000
    C13      C        0.66270    0.04120    0.65440    1.000
    C14      C        0.64900    0.94570    0.84560    1.000
    Pr3      Pr       0.83127    0.37141    0.48605    1.000
    Pr4      Pr       0.11052    0.36318    0.67293    1.000
    O9       O        0.75300    0.26790    0.37230    1.000
    O10      O        0.72360    0.15170    0.29460    1.000
    O11      O        0.94050    0.35640    0.56940    1.000
    O12      O        0.02030    0.28390    0.61360    1.000
    O13      O        0.13410    0.47290    0.61760    1.000
    O14      O        0.17410    0.59670    0.62630    1.000
    O15      O        0.12250    0.38350    0.79520    1.000
    O16      O        0.15710    0.45350    0.90860    1.000
    N3       N        0.86670    0.23390    0.46400    1.000
    N4       N        0.16180    0.50140    0.75780    1.000
    C15      C        0.82770    0.17600    0.40680    1.000
    C16      C        0.84610    0.10080    0.39590    1.000
    H7       H        0.81750    0.06090    0.35410    1.000
    C17      C        0.90680    0.08550    0.44690    1.000
    H8       H        0.92050    0.03400    0.44180    1.000
    C18      C        0.94690    0.14550    0.50490    1.000
    H9       H        0.98860    0.13650    0.53960    1.000
    C19      C        0.92580    0.21980    0.51240    1.000
    C20      C        0.76320    0.19940    0.35400    1.000
    C21      C        0.96550    0.29120    0.57000    1.000
    C22      C        0.18490    0.55490    0.73900    1.000
    C23      C        0.22600    0.61740    0.79320    1.000
    H10      H        0.24460    0.65140    0.78060    1.000
    C24      C        0.23900    0.62880    0.86670    1.000
    H11      H        0.26590    0.67210    0.90500    1.000
    C25      C        0.21240    0.57660    0.88320    1.000
    H12      H        0.21990    0.58470    0.93250    1.000
    C26      C        0.17470    0.51250    0.82860    1.000
    C27      C        0.16270    0.54120    0.65440    1.000
    C28      C        0.14900    0.44570    0.84560    1.000
    Pr5      Pr       0.66873    0.87141    0.01395    1.000
    Pr6      Pr       0.38948    0.86318    0.82707    1.000
    O17      O        0.74700    0.76790    0.12770    1.000
    O18      O        0.77640    0.65170    0.20540    1.000
    O19      O        0.55950    0.85640    0.93060    1.000
    O20      O        0.47970    0.78390    0.88640    1.000
    O21      O        0.36590    0.97290    0.88240    1.000
    O22      O        0.32590    0.09670    0.87370    1.000
    O23      O        0.37750    0.88350    0.70480    1.000
    O24      O        0.34290    0.95350    0.59140    1.000
    N5       N        0.63330    0.73390    0.03600    1.000
    N6       N        0.33820    0.00140    0.74220    1.000
    C29      C        0.67230    0.67600    0.09320    1.000
    C30      C        0.65390    0.60080    0.10410    1.000
    H13      H        0.68250    0.56090    0.14590    1.000
    C31      C        0.59320    0.58550    0.05310    1.000
    H14      H        0.57950    0.53400    0.05820    1.000
    C32      C        0.55310    0.64550    0.99510    1.000
    H15      H        0.51140    0.63650    0.96040    1.000
    C33      C        0.57420    0.71980    0.98760    1.000
    C34      C        0.73680    0.69940    0.14600    1.000
    C35      C        0.53450    0.79120    0.93000    1.000
    C36      C        0.31510    0.05490    0.76100    1.000
    C37      C        0.27400    0.11740    0.70680    1.000
    H16      H        0.25540    0.15140    0.71940    1.000
    C38      C        0.26100    0.12880    0.63330    1.000
    H17      H        0.23410    0.17210    0.59500    1.000
    C39      C        0.28760    0.07660    0.61680    1.000
    H18      H        0.28010    0.08470    0.56750    1.000
    C40      C        0.32530    0.01250    0.67140    1.000
    C41      C        0.33730    0.04120    0.84560    1.000
    C42      C        0.35100    0.94570    0.65440    1.000
    Pr7      Pr       0.16873    0.37141    0.01395    1.000
    Pr8      Pr       0.88948    0.36318    0.82707    1.000
    O25      O        0.24700    0.26790    0.12770    1.000
    O26      O        0.27640    0.15170    0.20540    1.000
    O27      O        0.05950    0.35640    0.93060    1.000
    O28      O        0.97970    0.28390    0.88640    1.000
    O29      O        0.86590    0.47290    0.88240    1.000
    O30      O        0.82590    0.59670    0.87370    1.000
    O31      O        0.87750    0.38350    0.70480    1.000
    O32      O        0.84290    0.45350    0.59140    1.000
    N7       N        0.13330    0.23390    0.03600    1.000
    N8       N        0.83820    0.50140    0.74220    1.000
    C43      C        0.17230    0.17600    0.09320    1.000
    C44      C        0.15390    0.10080    0.10410    1.000
    H19      H        0.18250    0.06090    0.14590    1.000
    C45      C        0.09320    0.08550    0.05310    1.000
    H20      H        0.07950    0.03400    0.05820    1.000
    C46      C        0.05310    0.14550    0.99510    1.000
    H21      H        0.01140    0.13650    0.96040    1.000
    C47      C        0.07420    0.21980    0.98760    1.000
    C48      C        0.23680    0.19940    0.14600    1.000
    C49      C        0.03450    0.29120    0.93000    1.000
    C50      C        0.81510    0.55490    0.76100    1.000
    C51      C        0.77400    0.61740    0.70680    1.000
    H22      H        0.75540    0.65140    0.71940    1.000
    C52      C        0.76100    0.62880    0.63330    1.000
    H23      H        0.73410    0.67210    0.59500    1.000
    C53      C        0.78760    0.57660    0.61680    1.000
    H24      H        0.78010    0.58470    0.56750    1.000
    C54      C        0.82530    0.51250    0.67140    1.000
    C55      C        0.83730    0.54120    0.84560    1.000
    C56      C        0.85100    0.44570    0.65440    1.000
    Pr9      Pr       0.66873    0.12859    0.51395    1.000
    Pr10     Pr       0.38948    0.13682    0.32707    1.000
    O33      O        0.74700    0.23210    0.62770    1.000
    O34      O        0.77640    0.34830    0.70540    1.000
    O35      O        0.55950    0.14360    0.43060    1.000
    O36      O        0.47970    0.21610    0.38640    1.000
    O37      O        0.36590    0.02710    0.38240    1.000
    O38      O        0.32590    0.90330    0.37370    1.000
    O39      O        0.37750    0.11650    0.20480    1.000
    O40      O        0.34290    0.04650    0.09140    1.000
    N9       N        0.63330    0.26610    0.53600    1.000
    N10      N        0.33820    0.99860    0.24220    1.000
    C57      C        0.67230    0.32400    0.59320    1.000
    C58      C        0.65390    0.39920    0.60410    1.000
    H25      H        0.68250    0.43910    0.64590    1.000
    C59      C        0.59320    0.41450    0.55310    1.000
    H26      H        0.57950    0.46600    0.55820    1.000
    C60      C        0.55310    0.35450    0.49510    1.000
    H27      H        0.51140    0.36350    0.46040    1.000
    C61      C        0.57420    0.28020    0.48760    1.000
    C62      C        0.73680    0.30060    0.64600    1.000
    C63      C        0.53450    0.20880    0.43000    1.000
    C64      C        0.31510    0.94510    0.26100    1.000
    C65      C        0.27400    0.88260    0.20680    1.000
    H28      H        0.25540    0.84860    0.21940    1.000
    C66      C        0.26100    0.87120    0.13330    1.000
    H29      H        0.23410    0.82790    0.09500    1.000
    C67      C        0.28760    0.92340    0.11680    1.000
    H30      H        0.28010    0.91530    0.06750    1.000
    C68      C        0.32530    0.98750    0.17140    1.000
    C69      C        0.33730    0.95880    0.34560    1.000
    C70      C        0.35100    0.05430    0.15440    1.000
    Pr11     Pr       0.16873    0.62859    0.51395    1.000
    Pr12     Pr       0.88948    0.63682    0.32707    1.000
    O41      O        0.24700    0.73210    0.62770    1.000
    O42      O        0.27640    0.84830    0.70540    1.000
    O43      O        0.05950    0.64360    0.43060    1.000
    O44      O        0.97970    0.71610    0.38640    1.000
    O45      O        0.86590    0.52710    0.38240    1.000
    O46      O        0.82590    0.40330    0.37370    1.000
    O47      O        0.87750    0.61650    0.20480    1.000
    O48      O        0.84290    0.54650    0.09140    1.000
    N11      N        0.13330    0.76610    0.53600    1.000
    N12      N        0.83820    0.49860    0.24220    1.000
    C71      C        0.17230    0.82400    0.59320    1.000
    C72      C        0.15390    0.89920    0.60410    1.000
    H31      H        0.18250    0.93910    0.64590    1.000
    C73      C        0.09320    0.91450    0.55310    1.000
    H32      H        0.07950    0.96600    0.55820    1.000
    C74      C        0.05310    0.85450    0.49510    1.000
    H33      H        0.01140    0.86350    0.46040    1.000
    C75      C        0.07420    0.78020    0.48760    1.000
    C76      C        0.23680    0.80060    0.64600    1.000
    C77      C        0.03450    0.70880    0.43000    1.000
    C78      C        0.81510    0.44510    0.26100    1.000
    C79      C        0.77400    0.38260    0.20680    1.000
    H34      H        0.75540    0.34860    0.21940    1.000
    C80      C        0.76100    0.37120    0.13330    1.000
    H35      H        0.73410    0.32790    0.09500    1.000
    C81      C        0.78760    0.42340    0.11680    1.000
    H36      H        0.78010    0.41530    0.06750    1.000
    C82      C        0.82530    0.48750    0.17140    1.000
    C83      C        0.83730    0.45880    0.34560    1.000
    C84      C        0.85100    0.55430    0.15440    1.000
    Pr13     Pr       0.33127    0.12859    0.98605    1.000
    Pr14     Pr       0.61052    0.13682    0.17293    1.000
    O49      O        0.25300    0.23210    0.87230    1.000
    O50      O        0.22360    0.34830    0.79460    1.000
    O51      O        0.44050    0.14360    0.06940    1.000
    O52      O        0.52030    0.21610    0.11360    1.000
    O53      O        0.63410    0.02710    0.11760    1.000
    O54      O        0.67410    0.90330    0.12630    1.000
    O55      O        0.62250    0.11650    0.29520    1.000
    O56      O        0.65710    0.04650    0.40860    1.000
    N13      N        0.36670    0.26610    0.96400    1.000
    N14      N        0.66180    0.99860    0.25780    1.000
    C85      C        0.32770    0.32400    0.90680    1.000
    C86      C        0.34610    0.39920    0.89590    1.000
    H37      H        0.31750    0.43910    0.85410    1.000
    C87      C        0.40680    0.41450    0.94690    1.000
    H38      H        0.42050    0.46600    0.94180    1.000
    C88      C        0.44690    0.35450    0.00490    1.000
    H39      H        0.48860    0.36350    0.03960    1.000
    C89      C        0.42580    0.28020    0.01240    1.000
    C90      C        0.26320    0.30060    0.85400    1.000
    C91      C        0.46550    0.20880    0.07000    1.000
    C92      C        0.68490    0.94510    0.23900    1.000
    C93      C        0.72600    0.88260    0.29320    1.000
    H40      H        0.74460    0.84860    0.28060    1.000
    C94      C        0.73900    0.87120    0.36670    1.000
    H41      H        0.76590    0.82790    0.40500    1.000
    C95      C        0.71240    0.92340    0.38320    1.000
    H42      H        0.71990    0.91530    0.43250    1.000
    C96      C        0.67470    0.98750    0.32860    1.000
    C97      C        0.66270    0.95880    0.15440    1.000
    C98      C        0.64900    0.05430    0.34560    1.000
    Pr15     Pr       0.83127    0.62859    0.98605    1.000
    Pr16     Pr       0.11052    0.63682    0.17293    1.000
    O57      O        0.75300    0.73210    0.87230    1.000
    O58      O        0.72360    0.84830    0.79460    1.000
    O59      O        0.94050    0.64360    0.06940    1.000
    O60      O        0.02030    0.71610    0.11360    1.000
    O61      O        0.13410    0.52710    0.11760    1.000
    O62      O        0.17410    0.40330    0.12630    1.000
    O63      O        0.12250    0.61650    0.29520    1.000
    O64      O        0.15710    0.54650    0.40860    1.000
    N15      N        0.86670    0.76610    0.96400    1.000
    N16      N        0.16180    0.49860    0.25780    1.000
    C99      C        0.82770    0.82400    0.90680    1.000
    C100     C        0.84610    0.89920    0.89590    1.000
    H43      H        0.81750    0.93910    0.85410    1.000
    C101     C        0.90680    0.91450    0.94690    1.000
    H44      H        0.92050    0.96600    0.94180    1.000
    C102     C        0.94690    0.85450    0.00490    1.000
    H45      H        0.98860    0.86350    0.03960    1.000
    C103     C        0.92580    0.78020    0.01240    1.000
    C104     C        0.76320    0.80060    0.85400    1.000
    C105     C        0.96550    0.70880    0.07000    1.000
    C106     C        0.18490    0.44510    0.23900    1.000
    C107     C        0.22600    0.38260    0.29320    1.000
    H46      H        0.24460    0.34860    0.28060    1.000
    C108     C        0.23900    0.37120    0.36670    1.000
    H47      H        0.26590    0.32790    0.40500    1.000
    C109     C        0.21240    0.42340    0.38320    1.000
    H48      H        0.21990    0.41530    0.43250    1.000
    C110     C        0.17470    0.48750    0.32860    1.000
    C111     C        0.16270    0.45880    0.15440    1.000
    C112     C        0.14900    0.55430    0.34560    1.000
