# CIF file generated by openbabel 3.1.0, see https://openbabel.org
data_I
_chemical_name_common 'image0'
_cell_length_a 9.6484
_cell_length_b 11.7939
_cell_length_c 11.8603
_cell_angle_alpha 73.671
_cell_angle_beta 67.426
_cell_angle_gamma 74.356
_space_group_name_H-M_alt 'P 1'
_space_group_name_Hall 'P 1'
loop_
    _symmetry_equiv_pos_as_xyz
    x,y,z
loop_
    _atom_site_label
    _atom_site_type_symbol
    _atom_site_fract_x
    _atom_site_fract_y
    _atom_site_fract_z
    _atom_site_occupancy
    Mg1      Mg       0.63984    0.26049    0.33464    1.000
    S1       S        0.37844    0.70370    0.11655    1.000
    S2       S        0.11196    0.29144    0.39480    1.000
    O1       O        0.50510    0.55608    0.31533    1.000
    O2       O        0.66180    0.41880    0.20383    1.000
    O3       O        0.20560    0.89390    0.97970    1.000
    O4       O        0.30560    0.83243    0.80016    1.000
    O5       O        0.41210    0.29650    0.39376    1.000
    O6       O        0.33320    0.40088    0.54544    1.000
    O7       O        0.86330    0.24830    0.33254    1.000
    O8       O        0.66940    0.34340    0.46483    1.000
    C1       C        0.57210    0.51750    0.21570    1.000
    C2       C        0.53940    0.59400    0.10230    1.000
    C3       C        0.61710    0.58660    0.98030    1.000
    H1       H        0.70730    0.53260    0.95430    1.000
    C4       C        0.54680    0.66930    0.89820    1.000
    H2       H        0.58570    0.67640    0.81210    1.000
    C5       C        0.41520    0.73770    0.95900    1.000
    C6       C        0.30180    0.82710    0.90860    1.000
    C7       C        0.31140    0.34500    0.48060    1.000
    C8       C        0.15090    0.33740    0.50260    1.000
    C9       C        0.01960    0.37410    0.59440    1.000
    H3       H        0.01840    0.40070    0.66160    1.000
    C10      C        0.88740    0.36700    0.57540    1.000
    H4       H        0.78890    0.38850    0.62860    1.000
    C11      C        0.91900    0.32520    0.47060    1.000
    C12      C        0.81230    0.30540    0.41910    1.000
    O9       O        0.64390    0.09310    0.45660    1.000
    H5       H        0.63410    0.09510    0.52780    1.000
    C13      C        0.57990    0.99510    0.45850    1.000
    H6       H        0.63890    0.91940    0.48710    1.000
    H7       H        0.58500    0.99650    0.37480    1.000
    H8       H        0.71420    0.08170    0.48520    1.000
    C14      C        0.54300    0.01100    0.53100    1.000
    H9       H        0.60190    0.93520    0.55920    1.000
    H10      H        0.47280    0.04240    0.60390    1.000
    Mg2      Mg       0.36016    0.73951    0.66536    1.000
    S3       S        0.62156    0.29630    0.88345    1.000
    S4       S        0.88804    0.70856    0.60520    1.000
    O10      O        0.49490    0.44392    0.68467    1.000
    O11      O        0.33820    0.58120    0.79617    1.000
    O12      O        0.79440    0.10610    0.02030    1.000
    O13      O        0.69440    0.16757    0.19984    1.000
    O14      O        0.58790    0.70350    0.60624    1.000
    O15      O        0.66680    0.59912    0.45456    1.000
    O16      O        0.13670    0.75170    0.66746    1.000
    O17      O        0.33060    0.65660    0.53517    1.000
    C15      C        0.42790    0.48250    0.78430    1.000
    C16      C        0.46060    0.40600    0.89770    1.000
    C17      C        0.38290    0.41340    0.01970    1.000
    H11      H        0.29270    0.46740    0.04570    1.000
    C18      C        0.45320    0.33070    0.10180    1.000
    H12      H        0.41430    0.32360    0.18790    1.000
    C19      C        0.58480    0.26230    0.04100    1.000
    C20      C        0.69820    0.17290    0.09140    1.000
    C21      C        0.68860    0.65500    0.51940    1.000
    C22      C        0.84910    0.66260    0.49740    1.000
    C23      C        0.98040    0.62590    0.40560    1.000
    H13      H        0.98160    0.59930    0.33840    1.000
    C24      C        0.11260    0.63300    0.42460    1.000
    H14      H        0.21110    0.61150    0.37140    1.000
    C25      C        0.08100    0.67480    0.52940    1.000
    C26      C        0.18770    0.69460    0.58090    1.000
    O18      O        0.35610    0.90690    0.54340    1.000
    H15      H        0.36590    0.90490    0.47220    1.000
    C27      C        0.42010    0.00490    0.54150    1.000
    H16      H        0.36110    0.08060    0.51290    1.000
    H17      H        0.41500    0.00350    0.62520    1.000
    H18      H        0.28580    0.91830    0.51480    1.000
    C28      C        0.45700    0.98900    0.46900    1.000
    H19      H        0.39810    0.06480    0.44080    1.000
    H20      H        0.52720    0.95760    0.39610    1.000
    Mg3      Mg       0.50000    0.50000    0.50000    1.000
    Mg4      Mg       0.00000    0.00000    0.00000    1.000
