# CIF file generated by openbabel 3.1.0, see https://openbabel.org
data_I
_chemical_name_common 'OKITIM_charged'
_cell_length_a 15.826
_cell_length_b 15.826
_cell_length_c 21.639
_cell_angle_alpha 90
_cell_angle_beta 90
_cell_angle_gamma 90
_space_group_name_H-M_alt 'P 1'
_space_group_name_Hall 'P 1'
loop_
    _symmetry_equiv_pos_as_xyz
    x,y,z
loop_
    _atom_site_label
    _atom_site_type_symbol
    _atom_site_fract_x
    _atom_site_fract_y
    _atom_site_fract_z
    _atom_site_occupancy
    Cd1      Cd       0.05803    0.94197    0.25000    1.000
    Cd2      Cd       0.94197    0.05803    0.75000    1.000
    Cd3      Cd       0.55803    0.55803    0.50000    1.000
    Cd4      Cd       0.44197    0.44197    0.00000    1.000
    H1       H        0.53640    0.61110    0.34920    1.000
    H2       H        0.58370    0.71730    0.28560    1.000
    H3       H        0.78660    0.74280    0.39640    1.000
    H4       H        0.72460    0.64220    0.46160    1.000
    H5       H        0.65190    0.79600    0.21900    1.000
    H6       H        0.70440    0.90730    0.16420    1.000
    H7       H        0.80320    0.00080    0.20580    1.000
    H8       H        0.79780    0.86390    0.36490    1.000
    H9       H        0.04640    0.11890    0.46070    1.000
    H10      H        0.06510    0.23130    0.53030    1.000
    H11      H        0.96240    0.33310    0.53900    1.000
    H12      H        0.82510    0.22260    0.40550    1.000
    H13      H        0.76630    0.34750    0.39200    1.000
    H14      H        0.66220    0.44450    0.40630    1.000
    H15      H        0.73760    0.49020    0.57470    1.000
    H16      H        0.84660    0.39440    0.56490    1.000
    H17      H        0.74980    0.03070    0.40560    1.000
    H18      H        0.73560    0.08380    0.35000    1.000
    H19      H        0.46360    0.38890    0.84920    1.000
    H20      H        0.41630    0.28270    0.78560    1.000
    H21      H        0.21340    0.25720    0.89640    1.000
    H22      H        0.27540    0.35780    0.96160    1.000
    H23      H        0.34810    0.20400    0.71900    1.000
    H24      H        0.29560    0.09270    0.66420    1.000
    H25      H        0.19680    0.99920    0.70580    1.000
    H26      H        0.20220    0.13610    0.86490    1.000
    H27      H        0.95360    0.88110    0.96070    1.000
    H28      H        0.93490    0.76870    0.03030    1.000
    H29      H        0.03760    0.66690    0.03900    1.000
    H30      H        0.17490    0.77740    0.90550    1.000
    H31      H        0.23370    0.65250    0.89200    1.000
    H32      H        0.33780    0.55550    0.90630    1.000
    H33      H        0.26240    0.50980    0.07470    1.000
    H34      H        0.15340    0.60560    0.06490    1.000
    H35      H        0.25020    0.96930    0.90560    1.000
    H36      H        0.26440    0.91620    0.85000    1.000
    H37      H        0.88890    0.03640    0.59920    1.000
    H38      H        0.78270    0.08370    0.53560    1.000
    H39      H        0.75720    0.28660    0.64640    1.000
    H40      H        0.85780    0.22460    0.71160    1.000
    H41      H        0.70400    0.15190    0.46900    1.000
    H42      H        0.59270    0.20440    0.41420    1.000
    H43      H        0.49920    0.30320    0.45580    1.000
    H44      H        0.63610    0.29780    0.61490    1.000
    H45      H        0.38110    0.54640    0.71070    1.000
    H46      H        0.26870    0.56510    0.78030    1.000
    H47      H        0.16690    0.46240    0.78900    1.000
    H48      H        0.27740    0.32510    0.65550    1.000
    H49      H        0.15250    0.26630    0.64200    1.000
    H50      H        0.05550    0.16220    0.65630    1.000
    H51      H        0.00980    0.23760    0.82470    1.000
    H52      H        0.10560    0.34660    0.81490    1.000
    H53      H        0.46930    0.24980    0.65560    1.000
    H54      H        0.41620    0.23560    0.60000    1.000
    H55      H        0.11110    0.96360    0.09920    1.000
    H56      H        0.21730    0.91630    0.03560    1.000
    H57      H        0.24280    0.71340    0.14640    1.000
    H58      H        0.14220    0.77540    0.21160    1.000
    H59      H        0.29600    0.84810    0.96900    1.000
    H60      H        0.40730    0.79560    0.91420    1.000
    H61      H        0.50080    0.69680    0.95580    1.000
    H62      H        0.36390    0.70220    0.11490    1.000
    H63      H        0.61890    0.45360    0.21070    1.000
    H64      H        0.73130    0.43490    0.28030    1.000
    H65      H        0.83310    0.53760    0.28900    1.000
    H66      H        0.72260    0.67490    0.15550    1.000
    H67      H        0.84750    0.73370    0.14200    1.000
    H68      H        0.94450    0.83780    0.15630    1.000
    H69      H        0.99020    0.76240    0.32470    1.000
    H70      H        0.89440    0.65340    0.31490    1.000
    H71      H        0.53070    0.75020    0.15560    1.000
    H72      H        0.58380    0.76440    0.10000    1.000
    H73      H        0.96360    0.11110    0.90080    1.000
    H74      H        0.91630    0.21730    0.96440    1.000
    H75      H        0.71340    0.24280    0.85360    1.000
    H76      H        0.77540    0.14220    0.78840    1.000
    H77      H        0.84810    0.29600    0.03100    1.000
    H78      H        0.79560    0.40730    0.08580    1.000
    H79      H        0.69680    0.50080    0.04420    1.000
    H80      H        0.70220    0.36390    0.88510    1.000
    H81      H        0.45360    0.61890    0.78930    1.000
    H82      H        0.43490    0.73130    0.71970    1.000
    H83      H        0.53760    0.83310    0.71100    1.000
    H84      H        0.67490    0.72260    0.84450    1.000
    H85      H        0.73370    0.84750    0.85800    1.000
    H86      H        0.83780    0.94450    0.84370    1.000
    H87      H        0.76240    0.99020    0.67530    1.000
    H88      H        0.65340    0.89440    0.68510    1.000
    H89      H        0.75020    0.53070    0.84440    1.000
    H90      H        0.76440    0.58380    0.90000    1.000
    H91      H        0.03640    0.88890    0.40080    1.000
    H92      H        0.08370    0.78270    0.46440    1.000
    H93      H        0.28660    0.75720    0.35360    1.000
    H94      H        0.22460    0.85780    0.28840    1.000
    H95      H        0.15190    0.70400    0.53100    1.000
    H96      H        0.20440    0.59270    0.58580    1.000
    H97      H        0.30320    0.49920    0.54420    1.000
    H98      H        0.29780    0.63610    0.38510    1.000
    H99      H        0.54640    0.38110    0.28930    1.000
    H100     H        0.56510    0.26870    0.21970    1.000
    H101     H        0.46240    0.16690    0.21100    1.000
    H102     H        0.32510    0.27740    0.34450    1.000
    H103     H        0.26630    0.15250    0.35800    1.000
    H104     H        0.16220    0.05550    0.34370    1.000
    H105     H        0.23760    0.00980    0.17530    1.000
    H106     H        0.34660    0.10560    0.18510    1.000
    H107     H        0.24980    0.46930    0.34440    1.000
    H108     H        0.23560    0.41620    0.40000    1.000
    H109     H        0.61110    0.53640    0.65080    1.000
    H110     H        0.71730    0.58370    0.71440    1.000
    H111     H        0.74280    0.78660    0.60360    1.000
    H112     H        0.64220    0.72460    0.53840    1.000
    H113     H        0.79600    0.65190    0.78100    1.000
    H114     H        0.90730    0.70440    0.83580    1.000
    H115     H        0.00080    0.80320    0.79420    1.000
    H116     H        0.86390    0.79780    0.63510    1.000
    H117     H        0.11890    0.04640    0.53930    1.000
    H118     H        0.23130    0.06510    0.46970    1.000
    H119     H        0.33310    0.96240    0.46100    1.000
    H120     H        0.22260    0.82510    0.59450    1.000
    H121     H        0.34750    0.76630    0.60800    1.000
    H122     H        0.44450    0.66220    0.59370    1.000
    H123     H        0.49020    0.73760    0.42530    1.000
    H124     H        0.39440    0.84660    0.43510    1.000
    H125     H        0.03070    0.74980    0.59440    1.000
    H126     H        0.08380    0.73560    0.65000    1.000
    H127     H        0.38890    0.46360    0.15080    1.000
    H128     H        0.28270    0.41630    0.21440    1.000
    H129     H        0.25720    0.21340    0.10360    1.000
    H130     H        0.35780    0.27540    0.03840    1.000
    H131     H        0.20400    0.34810    0.28100    1.000
    H132     H        0.09270    0.29560    0.33580    1.000
    H133     H        0.99920    0.19680    0.29420    1.000
    H134     H        0.13610    0.20220    0.13510    1.000
    H135     H        0.88110    0.95360    0.03930    1.000
    H136     H        0.76870    0.93490    0.96970    1.000
    H137     H        0.66690    0.03760    0.96100    1.000
    H138     H        0.77740    0.17490    0.09450    1.000
    H139     H        0.65250    0.23370    0.10800    1.000
    H140     H        0.55550    0.33780    0.09370    1.000
    H141     H        0.50980    0.26240    0.92530    1.000
    H142     H        0.60560    0.15340    0.93510    1.000
    H143     H        0.96930    0.25020    0.09440    1.000
    H144     H        0.91620    0.26440    0.15000    1.000
    C1       C        0.58630    0.64060    0.36050    1.000
    C2       C        0.61500    0.70350    0.32170    1.000
    C3       C        0.68810    0.74630    0.33460    1.000
    C4       C        0.73290    0.71970    0.38680    1.000
    C5       C        0.69580    0.65750    0.42470    1.000
    C6       C        0.71930    0.81950    0.29880    1.000
    C7       C        0.69200    0.83290    0.23740    1.000
    C8       C        0.72350    0.89880    0.20530    1.000
    C9       C        0.78240    0.95460    0.22920    1.000
    C10      C        0.81000    0.93930    0.29080    1.000
    C11      C        0.77850    0.87310    0.32390    1.000
    C12      C        0.87220    0.99630    0.32050    1.000
    C13      C        0.92430    0.09090    0.38180    1.000
    C14      C        0.93210    0.16150    0.42690    1.000
    C15      C        0.00530    0.16250    0.46400    1.000
    C16      C        0.01600    0.22850    0.50510    1.000
    C17      C        0.95530    0.28960    0.50920    1.000
    C18      C        0.88460    0.29170    0.47270    1.000
    C19      C        0.87390    0.22430    0.43110    1.000
    C20      C        0.81930    0.35800    0.47830    1.000
    C21      C        0.76170    0.37580    0.43060    1.000
    C22      C        0.69950    0.43350    0.43980    1.000
    C23      C        0.74290    0.46020    0.53690    1.000
    C24      C        0.80870    0.40260    0.53140    1.000
    C25      C        0.41370    0.35940    0.86050    1.000
    C26      C        0.38500    0.29650    0.82170    1.000
    C27      C        0.31190    0.25370    0.83460    1.000
    C28      C        0.26710    0.28030    0.88680    1.000
    C29      C        0.30420    0.34250    0.92470    1.000
    C30      C        0.28070    0.18050    0.79880    1.000
    C31      C        0.30800    0.16710    0.73740    1.000
    C32      C        0.27650    0.10120    0.70530    1.000
    C33      C        0.21760    0.04540    0.72920    1.000
    C34      C        0.19000    0.06070    0.79080    1.000
    C35      C        0.22150    0.12690    0.82390    1.000
    C36      C        0.12780    0.00370    0.82050    1.000
    C37      C        0.07570    0.90910    0.88180    1.000
    C38      C        0.06790    0.83850    0.92690    1.000
    C39      C        0.99470    0.83750    0.96400    1.000
    C40      C        0.98400    0.77150    0.00510    1.000
    C41      C        0.04470    0.71040    0.00920    1.000
    C42      C        0.11540    0.70830    0.97270    1.000
    C43      C        0.12610    0.77570    0.93110    1.000
    C44      C        0.18070    0.64200    0.97830    1.000
    C45      C        0.23830    0.62420    0.93060    1.000
    C46      C        0.30050    0.56650    0.93980    1.000
    C47      C        0.25710    0.53980    0.03690    1.000
    C48      C        0.19130    0.59740    0.03140    1.000
    C49      C        0.85940    0.08630    0.61050    1.000
    C50      C        0.79650    0.11500    0.57170    1.000
    C51      C        0.75370    0.18810    0.58460    1.000
    C52      C        0.78030    0.23290    0.63680    1.000
    C53      C        0.84250    0.19580    0.67470    1.000
    C54      C        0.68050    0.21930    0.54880    1.000
    C55      C        0.66710    0.19200    0.48740    1.000
    C56      C        0.60120    0.22350    0.45530    1.000
    C57      C        0.54540    0.28240    0.47920    1.000
    C58      C        0.56070    0.31000    0.54080    1.000
    C59      C        0.62690    0.27850    0.57390    1.000
    C60      C        0.50370    0.37220    0.57050    1.000
    C61      C        0.40910    0.42430    0.63180    1.000
    C62      C        0.33850    0.43210    0.67690    1.000
    C63      C        0.33750    0.50530    0.71400    1.000
    C64      C        0.27150    0.51600    0.75510    1.000
    C65      C        0.21040    0.45530    0.75920    1.000
    C66      C        0.20830    0.38460    0.72270    1.000
    C67      C        0.27570    0.37390    0.68110    1.000
    C68      C        0.14200    0.31930    0.72830    1.000
    C69      C        0.12420    0.26170    0.68060    1.000
    C70      C        0.06650    0.19950    0.68980    1.000
    C71      C        0.03980    0.24290    0.78690    1.000
    C72      C        0.09740    0.30870    0.78140    1.000
    C73      C        0.14060    0.91370    0.11050    1.000
    C74      C        0.20350    0.88500    0.07170    1.000
    C75      C        0.24630    0.81190    0.08460    1.000
    C76      C        0.21970    0.76710    0.13680    1.000
    C77      C        0.15750    0.80420    0.17470    1.000
    C78      C        0.31950    0.78070    0.04880    1.000
    C79      C        0.33290    0.80800    0.98740    1.000
    C80      C        0.39880    0.77650    0.95530    1.000
    C81      C        0.45460    0.71760    0.97920    1.000
    C82      C        0.43930    0.69000    0.04080    1.000
    C83      C        0.37310    0.72150    0.07390    1.000
    C84      C        0.49630    0.62780    0.07050    1.000
    C85      C        0.59090    0.57570    0.13180    1.000
    C86      C        0.66150    0.56790    0.17690    1.000
    C87      C        0.66250    0.49470    0.21400    1.000
    C88      C        0.72850    0.48400    0.25510    1.000
    C89      C        0.78960    0.54470    0.25920    1.000
    C90      C        0.79170    0.61540    0.22270    1.000
    C91      C        0.72430    0.62610    0.18110    1.000
    C92      C        0.85800    0.68070    0.22830    1.000
    C93      C        0.87580    0.73830    0.18060    1.000
    C94      C        0.93350    0.80050    0.18980    1.000
    C95      C        0.96020    0.75710    0.28690    1.000
    C96      C        0.90260    0.69130    0.28140    1.000
    C97      C        0.91370    0.14060    0.88950    1.000
    C98      C        0.88500    0.20350    0.92830    1.000
    C99      C        0.81190    0.24630    0.91540    1.000
    C100     C        0.76710    0.21970    0.86320    1.000
    C101     C        0.80420    0.15750    0.82530    1.000
    C102     C        0.78070    0.31950    0.95120    1.000
    C103     C        0.80800    0.33290    0.01260    1.000
    C104     C        0.77650    0.39880    0.04470    1.000
    C105     C        0.71760    0.45460    0.02080    1.000
    C106     C        0.69000    0.43930    0.95920    1.000
    C107     C        0.72150    0.37310    0.92610    1.000
    C108     C        0.62780    0.49630    0.92950    1.000
    C109     C        0.57570    0.59090    0.86820    1.000
    C110     C        0.56790    0.66150    0.82310    1.000
    C111     C        0.49470    0.66250    0.78600    1.000
    C112     C        0.48400    0.72850    0.74490    1.000
    C113     C        0.54470    0.78960    0.74080    1.000
    C114     C        0.61540    0.79170    0.77730    1.000
    C115     C        0.62610    0.72430    0.81890    1.000
    C116     C        0.68070    0.85800    0.77170    1.000
    C117     C        0.73830    0.87580    0.81940    1.000
    C118     C        0.80050    0.93350    0.81020    1.000
    C119     C        0.75710    0.96020    0.71310    1.000
    C120     C        0.69130    0.90260    0.71860    1.000
    C121     C        0.08630    0.85940    0.38950    1.000
    C122     C        0.11500    0.79650    0.42830    1.000
    C123     C        0.18810    0.75370    0.41540    1.000
    C124     C        0.23290    0.78030    0.36320    1.000
    C125     C        0.19580    0.84250    0.32530    1.000
    C126     C        0.21930    0.68050    0.45120    1.000
    C127     C        0.19200    0.66710    0.51260    1.000
    C128     C        0.22350    0.60120    0.54470    1.000
    C129     C        0.28240    0.54540    0.52080    1.000
    C130     C        0.31000    0.56070    0.45920    1.000
    C131     C        0.27850    0.62690    0.42610    1.000
    C132     C        0.37220    0.50370    0.42950    1.000
    C133     C        0.42430    0.40910    0.36820    1.000
    C134     C        0.43210    0.33850    0.32310    1.000
    C135     C        0.50530    0.33750    0.28600    1.000
    C136     C        0.51600    0.27150    0.24490    1.000
    C137     C        0.45530    0.21040    0.24080    1.000
    C138     C        0.38460    0.20830    0.27730    1.000
    C139     C        0.37390    0.27570    0.31890    1.000
    C140     C        0.31930    0.14200    0.27170    1.000
    C141     C        0.26170    0.12420    0.31940    1.000
    C142     C        0.19950    0.06650    0.31020    1.000
    C143     C        0.24290    0.03980    0.21310    1.000
    C144     C        0.30870    0.09740    0.21860    1.000
    C145     C        0.64060    0.58630    0.63950    1.000
    C146     C        0.70350    0.61500    0.67830    1.000
    C147     C        0.74630    0.68810    0.66540    1.000
    C148     C        0.71970    0.73290    0.61320    1.000
    C149     C        0.65750    0.69580    0.57530    1.000
    C150     C        0.81950    0.71930    0.70120    1.000
    C151     C        0.83290    0.69200    0.76260    1.000
    C152     C        0.89880    0.72350    0.79470    1.000
    C153     C        0.95460    0.78240    0.77080    1.000
    C154     C        0.93930    0.81000    0.70920    1.000
    C155     C        0.87310    0.77850    0.67610    1.000
    C156     C        0.99630    0.87220    0.67950    1.000
    C157     C        0.09090    0.92430    0.61820    1.000
    C158     C        0.16150    0.93210    0.57310    1.000
    C159     C        0.16250    0.00530    0.53600    1.000
    C160     C        0.22850    0.01600    0.49490    1.000
    C161     C        0.28960    0.95530    0.49080    1.000
    C162     C        0.29170    0.88460    0.52730    1.000
    C163     C        0.22430    0.87390    0.56890    1.000
    C164     C        0.35800    0.81930    0.52170    1.000
    C165     C        0.37580    0.76170    0.56940    1.000
    C166     C        0.43350    0.69950    0.56020    1.000
    C167     C        0.46020    0.74290    0.46310    1.000
    C168     C        0.40260    0.80870    0.46860    1.000
    C169     C        0.35940    0.41370    0.13950    1.000
    C170     C        0.29650    0.38500    0.17830    1.000
    C171     C        0.25370    0.31190    0.16540    1.000
    C172     C        0.28030    0.26710    0.11320    1.000
    C173     C        0.34250    0.30420    0.07530    1.000
    C174     C        0.18050    0.28070    0.20120    1.000
    C175     C        0.16710    0.30800    0.26260    1.000
    C176     C        0.10120    0.27650    0.29470    1.000
    C177     C        0.04540    0.21760    0.27080    1.000
    C178     C        0.06070    0.19000    0.20920    1.000
    C179     C        0.12690    0.22150    0.17610    1.000
    C180     C        0.00370    0.12780    0.17950    1.000
    C181     C        0.90910    0.07570    0.11820    1.000
    C182     C        0.83850    0.06790    0.07310    1.000
    C183     C        0.83750    0.99470    0.03600    1.000
    C184     C        0.77150    0.98400    0.99490    1.000
    C185     C        0.71040    0.04470    0.99080    1.000
    C186     C        0.70830    0.11540    0.02730    1.000
    C187     C        0.77570    0.12610    0.06890    1.000
    C188     C        0.64200    0.18070    0.02170    1.000
    C189     C        0.62420    0.23830    0.06940    1.000
    C190     C        0.56650    0.30050    0.06020    1.000
    C191     C        0.53980    0.25710    0.96310    1.000
    C192     C        0.59740    0.19130    0.96860    1.000
    N1       N        0.62420    0.61920    0.41230    1.000
    N2       N        0.95460    0.99380    0.31520    1.000
    N3       N        0.98810    0.05480    0.35460    1.000
    N4       N        0.85060    0.05600    0.36210    1.000
    N5       N        0.76990    0.07490    0.38310    1.000
    N6       N        0.68670    0.47610    0.49250    1.000
    N7       N        0.37580    0.38080    0.91230    1.000
    N8       N        0.04540    0.00620    0.81520    1.000
    N9       N        0.01190    0.94520    0.85460    1.000
    N10      N        0.14940    0.94400    0.86210    1.000
    N11      N        0.23010    0.92510    0.88310    1.000
    N12      N        0.31330    0.52390    0.99250    1.000
    N13      N        0.88080    0.12420    0.66230    1.000
    N14      N        0.50620    0.45460    0.56520    1.000
    N15      N        0.44520    0.48810    0.60460    1.000
    N16      N        0.44400    0.35060    0.61210    1.000
    N17      N        0.42510    0.26990    0.63310    1.000
    N18      N        0.02390    0.18670    0.74250    1.000
    N19      N        0.11920    0.87580    0.16230    1.000
    N20      N        0.49380    0.54540    0.06520    1.000
    N21      N        0.55480    0.51190    0.10460    1.000
    N22      N        0.55600    0.64940    0.11210    1.000
    N23      N        0.57490    0.73010    0.13310    1.000
    N24      N        0.97610    0.81330    0.24250    1.000
    N25      N        0.87580    0.11920    0.83770    1.000
    N26      N        0.54540    0.49380    0.93480    1.000
    N27      N        0.51190    0.55480    0.89540    1.000
    N28      N        0.64940    0.55600    0.88790    1.000
    N29      N        0.73010    0.57490    0.86690    1.000
    N30      N        0.81330    0.97610    0.75750    1.000
    N31      N        0.12420    0.88080    0.33770    1.000
    N32      N        0.45460    0.50620    0.43480    1.000
    N33      N        0.48810    0.44520    0.39540    1.000
    N34      N        0.35060    0.44400    0.38790    1.000
    N35      N        0.26990    0.42510    0.36690    1.000
    N36      N        0.18670    0.02390    0.25750    1.000
    N37      N        0.61920    0.62420    0.58770    1.000
    N38      N        0.99380    0.95460    0.68480    1.000
    N39      N        0.05480    0.98810    0.64540    1.000
    N40      N        0.05600    0.85060    0.63790    1.000
    N41      N        0.07490    0.76990    0.61690    1.000
    N42      N        0.47610    0.68670    0.50750    1.000
    N43      N        0.38080    0.37580    0.08770    1.000
    N44      N        0.00620    0.04540    0.18480    1.000
    N45      N        0.94520    0.01190    0.14540    1.000
    N46      N        0.94400    0.14940    0.13790    1.000
    N47      N        0.92510    0.23010    0.11690    1.000
    N48      N        0.52390    0.31330    0.00750    1.000
    Cl1      Cl       0.73045    0.73045    0.00000    1.000
    O1       O        0.76580    0.76320    0.05230    1.000
    O2       O        0.72400    0.66060    0.00260    1.000
    O3       O        0.76320    0.76580    0.94770    1.000
    O4       O        0.66060    0.72400    0.99740    1.000
    Cl2      Cl       0.26955    0.26955    0.50000    1.000
    O5       O        0.23420    0.23680    0.55230    1.000
    O6       O        0.27600    0.33940    0.50260    1.000
    O7       O        0.23680    0.23420    0.44770    1.000
    O8       O        0.33940    0.27600    0.49740    1.000
    Cl3      Cl       0.76955    0.23045    0.25000    1.000
    O9       O        0.73680    0.26580    0.30230    1.000
    O10      O        0.83940    0.22400    0.25260    1.000
    O11      O        0.73420    0.26320    0.19770    1.000
    O12      O        0.77600    0.16060    0.24740    1.000
    Cl4      Cl       0.23045    0.76955    0.75000    1.000
    O13      O        0.26320    0.73420    0.80230    1.000
    O14      O        0.16060    0.77600    0.75260    1.000
    O15      O        0.26580    0.73680    0.69770    1.000
    O16      O        0.22400    0.83940    0.74740    1.000
