# CIF file generated by openbabel 3.1.0, see https://openbabel.org
data_I
_chemical_name_common 'image0'
_cell_length_a 21.165
_cell_length_b 21.165
_cell_length_c 21.165
_cell_angle_alpha 90
_cell_angle_beta 90
_cell_angle_gamma 90
_space_group_name_H-M_alt 'P 1'
_space_group_name_Hall 'P 1'
loop_
    _symmetry_equiv_pos_as_xyz
    x,y,z
loop_
    _atom_site_label
    _atom_site_type_symbol
    _atom_site_fract_x
    _atom_site_fract_y
    _atom_site_fract_z
    _atom_site_occupancy
    N1       N        0.56890    0.69920    0.06720    1.000
    C1       C        0.58840    0.75840    0.08790    1.000
    H1       H        0.57250    0.79540    0.06810    1.000
    C2       C        0.63110    0.76350    0.13760    1.000
    H2       H        0.64440    0.80390    0.15170    1.000
    C3       C        0.65440    0.70930    0.16650    1.000
    C4       C        0.63490    0.65010    0.14580    1.000
    H3       H        0.65080    0.61310    0.16560    1.000
    C5       C        0.59220    0.64500    0.09620    1.000
    H4       H        0.57890    0.60450    0.08210    1.000
    C6       C        0.69500    0.72390    0.21720    1.000
    C7       C        0.68480    0.77100    0.25670    1.000
    H5       H        0.64870    0.79710    0.25080    1.000
    N2       N        0.43110    0.30080    0.06720    1.000
    C8       C        0.41160    0.24160    0.08790    1.000
    H6       H        0.42750    0.20460    0.06810    1.000
    C9       C        0.36890    0.23650    0.13760    1.000
    H7       H        0.35560    0.19610    0.15170    1.000
    C10      C        0.34560    0.29070    0.16650    1.000
    C11      C        0.36510    0.34990    0.14580    1.000
    H8       H        0.34920    0.38690    0.16560    1.000
    C12      C        0.40780    0.35500    0.09620    1.000
    H9       H        0.42110    0.39550    0.08210    1.000
    C13      C        0.30500    0.27610    0.21720    1.000
    C14      C        0.31520    0.22900    0.25670    1.000
    H10      H        0.35130    0.20290    0.25080    1.000
    N3       N        0.43110    0.69920    0.93280    1.000
    C15      C        0.41160    0.75840    0.91210    1.000
    H11      H        0.42750    0.79540    0.93190    1.000
    C16      C        0.36890    0.76350    0.86240    1.000
    H12      H        0.35560    0.80390    0.84830    1.000
    C17      C        0.34560    0.70930    0.83350    1.000
    C18      C        0.36510    0.65010    0.85420    1.000
    H13      H        0.34920    0.61310    0.83440    1.000
    C19      C        0.40780    0.64500    0.90380    1.000
    H14      H        0.42110    0.60450    0.91790    1.000
    C20      C        0.30500    0.72390    0.78280    1.000
    C21      C        0.31520    0.77100    0.74330    1.000
    H15      H        0.35130    0.79710    0.74920    1.000
    N4       N        0.56890    0.30080    0.93280    1.000
    C22      C        0.58840    0.24160    0.91210    1.000
    H16      H        0.57250    0.20460    0.93190    1.000
    C23      C        0.63110    0.23650    0.86240    1.000
    H17      H        0.64440    0.19610    0.84830    1.000
    C24      C        0.65440    0.29070    0.83350    1.000
    C25      C        0.63490    0.34990    0.85420    1.000
    H18      H        0.65080    0.38690    0.83440    1.000
    C26      C        0.59220    0.35500    0.90380    1.000
    H19      H        0.57890    0.39550    0.91790    1.000
    C27      C        0.69500    0.27610    0.78280    1.000
    C28      C        0.68480    0.22900    0.74330    1.000
    H20      H        0.64870    0.20290    0.74920    1.000
    N5       N        0.06720    0.56890    0.69920    1.000
    C29      C        0.08790    0.58840    0.75840    1.000
    H21      H        0.06810    0.57250    0.79540    1.000
    C30      C        0.13760    0.63110    0.76350    1.000
    H22      H        0.15170    0.64440    0.80390    1.000
    C31      C        0.16650    0.65440    0.70930    1.000
    C32      C        0.14580    0.63490    0.65010    1.000
    H23      H        0.16560    0.65080    0.61310    1.000
    C33      C        0.09620    0.59220    0.64500    1.000
    H24      H        0.08210    0.57890    0.60450    1.000
    C34      C        0.21720    0.69500    0.72390    1.000
    C35      C        0.25670    0.68480    0.77100    1.000
    H25      H        0.25080    0.64870    0.79710    1.000
    N6       N        0.06720    0.43110    0.30080    1.000
    C36      C        0.08790    0.41160    0.24160    1.000
    H26      H        0.06810    0.42750    0.20460    1.000
    C37      C        0.13760    0.36890    0.23650    1.000
    H27      H        0.15170    0.35560    0.19610    1.000
    C38      C        0.16650    0.34560    0.29070    1.000
    C39      C        0.14580    0.36510    0.34990    1.000
    H28      H        0.16560    0.34920    0.38690    1.000
    C40      C        0.09620    0.40780    0.35500    1.000
    H29      H        0.08210    0.42110    0.39550    1.000
    C41      C        0.21720    0.30500    0.27610    1.000
    C42      C        0.25670    0.31520    0.22900    1.000
    H30      H        0.25080    0.35130    0.20290    1.000
    N7       N        0.93280    0.43110    0.69920    1.000
    C43      C        0.91210    0.41160    0.75840    1.000
    H31      H        0.93190    0.42750    0.79540    1.000
    C44      C        0.86240    0.36890    0.76350    1.000
    H32      H        0.84830    0.35560    0.80390    1.000
    C45      C        0.83350    0.34560    0.70930    1.000
    C46      C        0.85420    0.36510    0.65010    1.000
    H33      H        0.83440    0.34920    0.61310    1.000
    C47      C        0.90380    0.40780    0.64500    1.000
    H34      H        0.91790    0.42110    0.60450    1.000
    C48      C        0.78280    0.30500    0.72390    1.000
    C49      C        0.74330    0.31520    0.77100    1.000
    H35      H        0.74920    0.35130    0.79710    1.000
    N8       N        0.93280    0.56890    0.30080    1.000
    C50      C        0.91210    0.58840    0.24160    1.000
    H36      H        0.93190    0.57250    0.20460    1.000
    C51      C        0.86240    0.63110    0.23650    1.000
    H37      H        0.84830    0.64440    0.19610    1.000
    C52      C        0.83350    0.65440    0.29070    1.000
    C53      C        0.85420    0.63490    0.34990    1.000
    H38      H        0.83440    0.65080    0.38690    1.000
    C54      C        0.90380    0.59220    0.35500    1.000
    H39      H        0.91790    0.57890    0.39550    1.000
    C55      C        0.78280    0.69500    0.27610    1.000
    C56      C        0.74330    0.68480    0.22900    1.000
    H40      H        0.74920    0.64870    0.20290    1.000
    N9       N        0.69920    0.06720    0.56890    1.000
    C57      C        0.75840    0.08790    0.58840    1.000
    H41      H        0.79540    0.06810    0.57250    1.000
    C58      C        0.76350    0.13760    0.63110    1.000
    H42      H        0.80390    0.15170    0.64440    1.000
    C59      C        0.70930    0.16650    0.65440    1.000
    C60      C        0.65010    0.14580    0.63490    1.000
    H43      H        0.61310    0.16560    0.65080    1.000
    C61      C        0.64500    0.09620    0.59220    1.000
    H44      H        0.60450    0.08210    0.57890    1.000
    C62      C        0.72390    0.21720    0.69500    1.000
    C63      C        0.77100    0.25670    0.68480    1.000
    H45      H        0.79710    0.25080    0.64870    1.000
    N10      N        0.30080    0.06720    0.43110    1.000
    C64      C        0.24160    0.08790    0.41160    1.000
    H46      H        0.20460    0.06810    0.42750    1.000
    C65      C        0.23650    0.13760    0.36890    1.000
    H47      H        0.19610    0.15170    0.35560    1.000
    C66      C        0.29070    0.16650    0.34560    1.000
    C67      C        0.34990    0.14580    0.36510    1.000
    H48      H        0.38690    0.16560    0.34920    1.000
    C68      C        0.35500    0.09620    0.40780    1.000
    H49      H        0.39550    0.08210    0.42110    1.000
    C69      C        0.27610    0.21720    0.30500    1.000
    C70      C        0.22900    0.25670    0.31520    1.000
    H50      H        0.20290    0.25080    0.35130    1.000
    N11      N        0.69920    0.93280    0.43110    1.000
    C71      C        0.75840    0.91210    0.41160    1.000
    H51      H        0.79540    0.93190    0.42750    1.000
    C72      C        0.76350    0.86240    0.36890    1.000
    H52      H        0.80390    0.84830    0.35560    1.000
    C73      C        0.70930    0.83350    0.34560    1.000
    C74      C        0.65010    0.85420    0.36510    1.000
    H53      H        0.61310    0.83440    0.34920    1.000
    C75      C        0.64500    0.90380    0.40780    1.000
    H54      H        0.60450    0.91790    0.42110    1.000
    C76      C        0.72390    0.78280    0.30500    1.000
    C77      C        0.77100    0.74330    0.31520    1.000
    H55      H        0.79710    0.74920    0.35130    1.000
    N12      N        0.30080    0.93280    0.56890    1.000
    C78      C        0.24160    0.91210    0.58840    1.000
    H56      H        0.20460    0.93190    0.57250    1.000
    C79      C        0.23650    0.86240    0.63110    1.000
    H57      H        0.19610    0.84830    0.64440    1.000
    C80      C        0.29070    0.83350    0.65440    1.000
    C81      C        0.34990    0.85420    0.63490    1.000
    H58      H        0.38690    0.83440    0.65080    1.000
    C82      C        0.35500    0.90380    0.59220    1.000
    H59      H        0.39550    0.91790    0.57890    1.000
    C83      C        0.27610    0.78280    0.69500    1.000
    C84      C        0.22900    0.74330    0.68480    1.000
    H60      H        0.20290    0.74920    0.64870    1.000
    N13      N        0.43110    0.30080    0.93280    1.000
    C85      C        0.41160    0.24160    0.91210    1.000
    H61      H        0.42750    0.20460    0.93190    1.000
    C86      C        0.36890    0.23650    0.86240    1.000
    H62      H        0.35560    0.19610    0.84830    1.000
    C87      C        0.34560    0.29070    0.83350    1.000
    C88      C        0.36510    0.34990    0.85420    1.000
    H63      H        0.34920    0.38690    0.83440    1.000
    C89      C        0.40780    0.35500    0.90380    1.000
    H64      H        0.42110    0.39550    0.91790    1.000
    C90      C        0.30500    0.27610    0.78280    1.000
    C91      C        0.31520    0.22900    0.74330    1.000
    H65      H        0.35130    0.20290    0.74920    1.000
    N14      N        0.56890    0.69920    0.93280    1.000
    C92      C        0.58840    0.75840    0.91210    1.000
    H66      H        0.57250    0.79540    0.93190    1.000
    C93      C        0.63110    0.76350    0.86240    1.000
    H67      H        0.64440    0.80390    0.84830    1.000
    C94      C        0.65440    0.70930    0.83350    1.000
    C95      C        0.63490    0.65010    0.85420    1.000
    H68      H        0.65080    0.61310    0.83440    1.000
    C96      C        0.59220    0.64500    0.90380    1.000
    H69      H        0.57890    0.60450    0.91790    1.000
    C97      C        0.69500    0.72390    0.78280    1.000
    C98      C        0.68480    0.77100    0.74330    1.000
    H70      H        0.64870    0.79710    0.74920    1.000
    N15      N        0.56890    0.30080    0.06720    1.000
    C99      C        0.58840    0.24160    0.08790    1.000
    H71      H        0.57250    0.20460    0.06810    1.000
    C100     C        0.63110    0.23650    0.13760    1.000
    H72      H        0.64440    0.19610    0.15170    1.000
    C101     C        0.65440    0.29070    0.16650    1.000
    C102     C        0.63490    0.34990    0.14580    1.000
    H73      H        0.65080    0.38690    0.16560    1.000
    C103     C        0.59220    0.35500    0.09620    1.000
    H74      H        0.57890    0.39550    0.08210    1.000
    C104     C        0.69500    0.27610    0.21720    1.000
    C105     C        0.68480    0.22900    0.25670    1.000
    H75      H        0.64870    0.20290    0.25080    1.000
    N16      N        0.43110    0.69920    0.06720    1.000
    C106     C        0.41160    0.75840    0.08790    1.000
    H76      H        0.42750    0.79540    0.06810    1.000
    C107     C        0.36890    0.76350    0.13760    1.000
    H77      H        0.35560    0.80390    0.15170    1.000
    C108     C        0.34560    0.70930    0.16650    1.000
    C109     C        0.36510    0.65010    0.14580    1.000
    H78      H        0.34920    0.61310    0.16560    1.000
    C110     C        0.40780    0.64500    0.09620    1.000
    H79      H        0.42110    0.60450    0.08210    1.000
    C111     C        0.30500    0.72390    0.21720    1.000
    C112     C        0.31520    0.77100    0.25670    1.000
    H80      H        0.35130    0.79710    0.25080    1.000
    N17      N        0.93280    0.43110    0.30080    1.000
    C113     C        0.91210    0.41160    0.24160    1.000
    H81      H        0.93190    0.42750    0.20460    1.000
    C114     C        0.86240    0.36890    0.23650    1.000
    H82      H        0.84830    0.35560    0.19610    1.000
    C115     C        0.83350    0.34560    0.29070    1.000
    C116     C        0.85420    0.36510    0.34990    1.000
    H83      H        0.83440    0.34920    0.38690    1.000
    C117     C        0.90380    0.40780    0.35500    1.000
    H84      H        0.91790    0.42110    0.39550    1.000
    C118     C        0.78280    0.30500    0.27610    1.000
    C119     C        0.74330    0.31520    0.22900    1.000
    H85      H        0.74920    0.35130    0.20290    1.000
    N18      N        0.93280    0.56890    0.69920    1.000
    C120     C        0.91210    0.58840    0.75840    1.000
    H86      H        0.93190    0.57250    0.79540    1.000
    C121     C        0.86240    0.63110    0.76350    1.000
    H87      H        0.84830    0.64440    0.80390    1.000
    C122     C        0.83350    0.65440    0.70930    1.000
    C123     C        0.85420    0.63490    0.65010    1.000
    H88      H        0.83440    0.65080    0.61310    1.000
    C124     C        0.90380    0.59220    0.64500    1.000
    H89      H        0.91790    0.57890    0.60450    1.000
    C125     C        0.78280    0.69500    0.72390    1.000
    C126     C        0.74330    0.68480    0.77100    1.000
    H90      H        0.74920    0.64870    0.79710    1.000
    N19      N        0.06720    0.56890    0.30080    1.000
    C127     C        0.08790    0.58840    0.24160    1.000
    H91      H        0.06810    0.57250    0.20460    1.000
    C128     C        0.13760    0.63110    0.23650    1.000
    H92      H        0.15170    0.64440    0.19610    1.000
    C129     C        0.16650    0.65440    0.29070    1.000
    C130     C        0.14580    0.63490    0.34990    1.000
    H93      H        0.16560    0.65080    0.38690    1.000
    C131     C        0.09620    0.59220    0.35500    1.000
    H94      H        0.08210    0.57890    0.39550    1.000
    C132     C        0.21720    0.69500    0.27610    1.000
    C133     C        0.25670    0.68480    0.22900    1.000
    H95      H        0.25080    0.64870    0.20290    1.000
    N20      N        0.06720    0.43110    0.69920    1.000
    C134     C        0.08790    0.41160    0.75840    1.000
    H96      H        0.06810    0.42750    0.79540    1.000
    C135     C        0.13760    0.36890    0.76350    1.000
    H97      H        0.15170    0.35560    0.80390    1.000
    C136     C        0.16650    0.34560    0.70930    1.000
    C137     C        0.14580    0.36510    0.65010    1.000
    H98      H        0.16560    0.34920    0.61310    1.000
    C138     C        0.09620    0.40780    0.64500    1.000
    H99      H        0.08210    0.42110    0.60450    1.000
    C139     C        0.21720    0.30500    0.72390    1.000
    C140     C        0.25670    0.31520    0.77100    1.000
    H100     H        0.25080    0.35130    0.79710    1.000
    N21      N        0.30080    0.93280    0.43110    1.000
    C141     C        0.24160    0.91210    0.41160    1.000
    H101     H        0.20460    0.93190    0.42750    1.000
    C142     C        0.23650    0.86240    0.36890    1.000
    H102     H        0.19610    0.84830    0.35560    1.000
    C143     C        0.29070    0.83350    0.34560    1.000
    C144     C        0.34990    0.85420    0.36510    1.000
    H103     H        0.38690    0.83440    0.34920    1.000
    C145     C        0.35500    0.90380    0.40780    1.000
    H104     H        0.39550    0.91790    0.42110    1.000
    C146     C        0.27610    0.78280    0.30500    1.000
    C147     C        0.22900    0.74330    0.31520    1.000
    H105     H        0.20290    0.74920    0.35130    1.000
    N22      N        0.69920    0.93280    0.56890    1.000
    C148     C        0.75840    0.91210    0.58840    1.000
    H106     H        0.79540    0.93190    0.57250    1.000
    C149     C        0.76350    0.86240    0.63110    1.000
    H107     H        0.80390    0.84830    0.64440    1.000
    C150     C        0.70930    0.83350    0.65440    1.000
    C151     C        0.65010    0.85420    0.63490    1.000
    H108     H        0.61310    0.83440    0.65080    1.000
    C152     C        0.64500    0.90380    0.59220    1.000
    H109     H        0.60450    0.91790    0.57890    1.000
    C153     C        0.72390    0.78280    0.69500    1.000
    C154     C        0.77100    0.74330    0.68480    1.000
    H110     H        0.79710    0.74920    0.64870    1.000
    N23      N        0.30080    0.06720    0.56890    1.000
    C155     C        0.24160    0.08790    0.58840    1.000
    H111     H        0.20460    0.06810    0.57250    1.000
    C156     C        0.23650    0.13760    0.63110    1.000
    H112     H        0.19610    0.15170    0.64440    1.000
    C157     C        0.29070    0.16650    0.65440    1.000
    C158     C        0.34990    0.14580    0.63490    1.000
    H113     H        0.38690    0.16560    0.65080    1.000
    C159     C        0.35500    0.09620    0.59220    1.000
    H114     H        0.39550    0.08210    0.57890    1.000
    C160     C        0.27610    0.21720    0.69500    1.000
    C161     C        0.22900    0.25670    0.68480    1.000
    H115     H        0.20290    0.25080    0.64870    1.000
    N24      N        0.69920    0.06720    0.43110    1.000
    C162     C        0.75840    0.08790    0.41160    1.000
    H116     H        0.79540    0.06810    0.42750    1.000
    C163     C        0.76350    0.13760    0.36890    1.000
    H117     H        0.80390    0.15170    0.35560    1.000
    C164     C        0.70930    0.16650    0.34560    1.000
    C165     C        0.65010    0.14580    0.36510    1.000
    H118     H        0.61310    0.16560    0.34920    1.000
    C166     C        0.64500    0.09620    0.40780    1.000
    H119     H        0.60450    0.08210    0.42110    1.000
    C167     C        0.72390    0.21720    0.30500    1.000
    C168     C        0.77100    0.25670    0.31520    1.000
    H120     H        0.79710    0.25080    0.35130    1.000
    Cu1      Cu       0.50000    0.68640    0.00000    1.000
    F1       F        0.50000    0.59020    0.00000    1.000
    Cu2      Cu       0.50000    0.31360    0.00000    1.000
    F2       F        0.50000    0.40980    0.00000    1.000
    Cu3      Cu       0.00000    0.50000    0.68640    1.000
    F3       F        0.00000    0.50000    0.59020    1.000
    Cu4      Cu       0.00000    0.50000    0.31360    1.000
    F4       F        0.00000    0.50000    0.40980    1.000
    Cu5      Cu       0.68640    0.00000    0.50000    1.000
    F5       F        0.59020    0.00000    0.50000    1.000
    Cu6      Cu       0.31360    0.00000    0.50000    1.000
    F6       F        0.40980    0.00000    0.50000    1.000
    Zr1      Zr       0.50000    0.50000    0.00000    1.000
    Zr2      Zr       0.00000    0.50000    0.50000    1.000
    Zr3      Zr       0.50000    0.00000    0.50000    1.000
    F7       F        0.54080    0.50000    0.07770    1.000
    F8       F        0.45920    0.50000    0.07770    1.000
    F9       F        0.45920    0.50000    0.92230    1.000
    F10      F        0.54080    0.50000    0.92230    1.000
    F11      F        0.07770    0.54080    0.50000    1.000
    F12      F        0.07770    0.45920    0.50000    1.000
    F13      F        0.92230    0.45920    0.50000    1.000
    F14      F        0.92230    0.54080    0.50000    1.000
    F15      F        0.50000    0.07770    0.54080    1.000
    F16      F        0.50000    0.07770    0.45920    1.000
    F17      F        0.50000    0.92230    0.45920    1.000
    F18      F        0.50000    0.92230    0.54080    1.000
