# CIF file generated by openbabel 3.1.0, see https://openbabel.org
data_I
_chemical_name_common 'BIMDEF_clean'
_cell_length_a 8.5732
_cell_length_b 8.5732
_cell_length_c 14.3359
_cell_angle_alpha 87.0844
_cell_angle_beta 87.0844
_cell_angle_gamma 81.7428
_space_group_name_H-M_alt 'P 1'
_space_group_name_Hall 'P 1'
loop_
    _symmetry_equiv_pos_as_xyz
    x,y,z
loop_
    _atom_site_label
    _atom_site_type_symbol
    _atom_site_fract_x
    _atom_site_fract_y
    _atom_site_fract_z
    _atom_site_occupancy
    Cu1      Cu       0.97710    0.65430    0.49000    1.000
    Cu2      Cu       0.34570    0.02290    0.01000    1.000
    Cu3      Cu       0.02290    0.34570    0.51000    1.000
    Cu4      Cu       0.65430    0.97710    0.99000    1.000
    H1       H        0.53770    0.37510    0.41740    1.000
    H2       H        0.52430    0.56390    0.41250    1.000
    H3       H        0.40060    0.23660    0.30250    1.000
    H4       H        0.29790    0.33550    0.22330    1.000
    H5       H        0.36410    0.72390    0.28670    1.000
    H6       H        0.78550    0.30130    0.20730    1.000
    H7       H        0.62490    0.46230    0.08260    1.000
    H8       H        0.43610    0.47570    0.08750    1.000
    H9       H        0.76340    0.59940    0.19750    1.000
    H10      H        0.66450    0.70210    0.27670    1.000
    H11      H        0.27610    0.63590    0.21330    1.000
    H12      H        0.69870    0.21450    0.29270    1.000
    H13      H        0.46230    0.62490    0.58260    1.000
    H14      H        0.47570    0.43610    0.58750    1.000
    H15      H        0.59940    0.76340    0.69750    1.000
    H16      H        0.70210    0.66450    0.77670    1.000
    H17      H        0.63590    0.27610    0.71330    1.000
    H18      H        0.21450    0.69870    0.79270    1.000
    H19      H        0.37510    0.53770    0.91740    1.000
    H20      H        0.56390    0.52430    0.91250    1.000
    H21      H        0.23660    0.40060    0.80250    1.000
    H22      H        0.33550    0.29790    0.72330    1.000
    H23      H        0.72390    0.36410    0.78670    1.000
    H24      H        0.30130    0.78550    0.70730    1.000
    C1       C        0.23770    0.48910    0.38550    1.000
    C2       C        0.38190    0.48070    0.31680    1.000
    C3       C        0.53060    0.46980    0.37450    1.000
    C4       C        0.67950    0.45950    0.30710    1.000
    C5       C        0.81770    0.45770    0.37190    1.000
    C6       C        0.39370    0.33130    0.25970    1.000
    C7       C        0.51090    0.76230    0.11450    1.000
    C8       C        0.51930    0.61810    0.18320    1.000
    C9       C        0.53020    0.46940    0.12550    1.000
    C10      C        0.54050    0.32050    0.19290    1.000
    C11      C        0.54230    0.18230    0.12810    1.000
    C12      C        0.66870    0.60630    0.24030    1.000
    C13      C        0.76230    0.51090    0.61450    1.000
    C14      C        0.61810    0.51930    0.68320    1.000
    C15      C        0.46940    0.53020    0.62550    1.000
    C16      C        0.32050    0.54050    0.69290    1.000
    C17      C        0.18230    0.54230    0.62810    1.000
    C18      C        0.60630    0.66870    0.74030    1.000
    C19      C        0.48910    0.23770    0.88550    1.000
    C20      C        0.48070    0.38190    0.81680    1.000
    C21      C        0.46980    0.53060    0.87450    1.000
    C22      C        0.45950    0.67950    0.80710    1.000
    C23      C        0.45770    0.81770    0.87190    1.000
    C24      C        0.33130    0.39370    0.75970    1.000
    C25      C        0.37190    0.62810    0.25000    1.000
    C26      C        0.69050    0.30950    0.25000    1.000
    C27      C        0.62810    0.37190    0.75000    1.000
    C28      C        0.30950    0.69050    0.75000    1.000
    O1       O        0.16880    0.62360    0.40670    1.000
    O2       O        0.19890    0.36030    0.41810    1.000
    O3       O        0.88470    0.32790    0.40490    1.000
    O4       O        0.84830    0.59090    0.39230    1.000
    O5       O        0.37640    0.83120    0.09330    1.000
    O6       O        0.63970    0.80110    0.08190    1.000
    O7       O        0.67210    0.11530    0.09510    1.000
    O8       O        0.40910    0.15170    0.10770    1.000
    O9       O        0.83120    0.37640    0.59330    1.000
    O10      O        0.80110    0.63970    0.58190    1.000
    O11      O        0.11530    0.67210    0.59510    1.000
    O12      O        0.15170    0.40910    0.60770    1.000
    O13      O        0.62360    0.16880    0.90670    1.000
    O14      O        0.36030    0.19890    0.91810    1.000
    O15      O        0.32790    0.88470    0.90490    1.000
    O16      O        0.59090    0.84830    0.89230    1.000
