# CIF file generated by openbabel 3.1.0, see https://openbabel.org
data_I
_chemical_name_common 'image0'
_cell_length_a 22.0023
_cell_length_b 19.2411
_cell_length_c 8.7311
_cell_angle_alpha 90
_cell_angle_beta 90
_cell_angle_gamma 90
_space_group_name_H-M_alt 'P 1'
_space_group_name_Hall 'P 1'
loop_
    _symmetry_equiv_pos_as_xyz
    x,y,z
loop_
    _atom_site_label
    _atom_site_type_symbol
    _atom_site_fract_x
    _atom_site_fract_y
    _atom_site_fract_z
    _atom_site_occupancy
    C1       C        0.49876    0.15272    0.44330    1.000
    C2       C        0.50143    0.18324    0.55690    1.000
    N1       N        0.42703    0.03284    0.25144    1.000
    C3       C        0.43098    0.96854    0.19230    1.000
    H1       H        0.46460    0.95710    0.12870    1.000
    N2       N        0.33752    0.93208    0.30420    1.000
    C4       C        0.38711    0.91856    0.22180    1.000
    H2       H        0.39260    0.87310    0.18190    1.000
    N3       N        0.26330    0.07958    0.47430    1.000
    C5       C        0.33201    0.99730    0.35780    1.000
    N4       N        0.14546    0.18341    0.64670    1.000
    C6       C        0.37680    0.04718    0.33300    1.000
    H3       H        0.37170    0.09240    0.37480    1.000
    N5       N        0.21585    0.28698    0.50920    1.000
    C7       C        0.27621    0.01249    0.44800    1.000
    N6       N        0.06905    0.80587    0.71530    1.000
    C8       C        0.24036    0.95753    0.49910    1.000
    H4       H        0.25130    0.91090    0.47660    1.000
    C9       C        0.18815    0.97217    0.58370    1.000
    C10      C        0.14736    0.91495    0.63180    1.000
    C11      C        0.14333    0.85415    0.54480    1.000
    H5       H        0.16750    0.84860    0.45550    1.000
    C12      C        0.10385    0.80207    0.58950    1.000
    H6       H        0.10120    0.76150    0.52790    1.000
    C13      C        0.07327    0.86398    0.79910    1.000
    H7       H        0.04910    0.86750    0.88900    1.000
    C14      C        0.11101    0.91933    0.76180    1.000
    H8       H        0.11200    0.95970    0.82430    1.000
    C15      C        0.17503    0.04179    0.61470    1.000
    H9       H        0.14070    0.05390    0.67500    1.000
    C16      C        0.21321    0.09354    0.55580    1.000
    C17      C        0.19675    0.16796    0.57190    1.000
    C18      C        0.12936    0.25069    0.65080    1.000
    H10      H        0.09320    0.26370    0.70290    1.000
    C19      C        0.16401    0.30156    0.58130    1.000
    H11      H        0.15050    0.34840    0.58500    1.000
    C20      C        0.23185    0.21995    0.50490    1.000
    H12      H        0.26850    0.20740    0.45440    1.000
    N7       N        0.50124    0.15272    0.05670    1.000
    C21      C        0.49857    0.18324    0.94310    1.000
    N8       N        0.57297    0.03284    0.24856    1.000
    C22      C        0.56902    0.96854    0.30770    1.000
    H13      H        0.53540    0.95710    0.37130    1.000
    N9       N        0.66248    0.93208    0.19580    1.000
    C23      C        0.61289    0.91856    0.27820    1.000
    H14      H        0.60740    0.87310    0.31810    1.000
    N10      N        0.73670    0.07958    0.02570    1.000
    C24      C        0.66799    0.99730    0.14220    1.000
    N11      N        0.85454    0.18341    0.85330    1.000
    C25      C        0.62320    0.04718    0.16700    1.000
    H15      H        0.62830    0.09240    0.12520    1.000
    N12      N        0.78415    0.28698    0.99080    1.000
    C26      C        0.72379    0.01249    0.05200    1.000
    N13      N        0.93095    0.80587    0.78470    1.000
    C27      C        0.75964    0.95753    0.00090    1.000
    H16      H        0.74870    0.91090    0.02340    1.000
    C28      C        0.81185    0.97217    0.91630    1.000
    C29      C        0.85264    0.91495    0.86820    1.000
    C30      C        0.85667    0.85415    0.95520    1.000
    H17      H        0.83250    0.84860    0.04450    1.000
    C31      C        0.89615    0.80207    0.91050    1.000
    H18      H        0.89880    0.76150    0.97210    1.000
    C32      C        0.92673    0.86398    0.70090    1.000
    H19      H        0.95090    0.86750    0.61100    1.000
    C33      C        0.88899    0.91933    0.73820    1.000
    H20      H        0.88800    0.95970    0.67570    1.000
    C34      C        0.82497    0.04179    0.88530    1.000
    H21      H        0.85930    0.05390    0.82500    1.000
    C35      C        0.78679    0.09354    0.94420    1.000
    C36      C        0.80325    0.16796    0.92810    1.000
    C37      C        0.87064    0.25069    0.84920    1.000
    H22      H        0.90680    0.26370    0.79710    1.000
    C38      C        0.83599    0.30156    0.91870    1.000
    H23      H        0.84950    0.34840    0.91500    1.000
    C39      C        0.76815    0.21995    0.99510    1.000
    H24      H        0.73150    0.20740    0.04560    1.000
    C40      C        0.99876    0.65272    0.05670    1.000
    C41      C        0.00143    0.68324    0.94310    1.000
    N14      N        0.92703    0.53284    0.24856    1.000
    C42      C        0.93098    0.46854    0.30770    1.000
    H25      H        0.96460    0.45710    0.37130    1.000
    N15      N        0.83752    0.43208    0.19580    1.000
    C43      C        0.88711    0.41856    0.27820    1.000
    H26      H        0.89260    0.37310    0.31810    1.000
    N16      N        0.76330    0.57958    0.02570    1.000
    C44      C        0.83201    0.49730    0.14220    1.000
    N17      N        0.64546    0.68341    0.85330    1.000
    C45      C        0.87680    0.54718    0.16700    1.000
    H27      H        0.87170    0.59240    0.12520    1.000
    N18      N        0.71585    0.78698    0.99080    1.000
    C46      C        0.77621    0.51249    0.05200    1.000
    N19      N        0.56905    0.30587    0.78470    1.000
    C47      C        0.74036    0.45753    0.00090    1.000
    H28      H        0.75130    0.41090    0.02340    1.000
    C48      C        0.68815    0.47217    0.91630    1.000
    C49      C        0.64736    0.41495    0.86820    1.000
    C50      C        0.64333    0.35415    0.95520    1.000
    H29      H        0.66750    0.34860    0.04450    1.000
    C51      C        0.60385    0.30207    0.91050    1.000
    H30      H        0.60120    0.26150    0.97210    1.000
    C52      C        0.57327    0.36398    0.70090    1.000
    H31      H        0.54910    0.36750    0.61100    1.000
    C53      C        0.61101    0.41933    0.73820    1.000
    H32      H        0.61200    0.45970    0.67570    1.000
    C54      C        0.67503    0.54179    0.88530    1.000
    H33      H        0.64070    0.55390    0.82500    1.000
    C55      C        0.71321    0.59354    0.94420    1.000
    C56      C        0.69675    0.66796    0.92810    1.000
    C57      C        0.62936    0.75069    0.84920    1.000
    H34      H        0.59320    0.76370    0.79710    1.000
    C58      C        0.66401    0.80156    0.91870    1.000
    H35      H        0.65050    0.84840    0.91500    1.000
    C59      C        0.73185    0.71995    0.99510    1.000
    H36      H        0.76850    0.70740    0.04560    1.000
    N20      N        0.00124    0.65272    0.44330    1.000
    C60      C        0.99857    0.68324    0.55690    1.000
    N21      N        0.07297    0.53284    0.25144    1.000
    C61      C        0.06902    0.46854    0.19230    1.000
    H37      H        0.03540    0.45710    0.12870    1.000
    N22      N        0.16248    0.43208    0.30420    1.000
    C62      C        0.11289    0.41856    0.22180    1.000
    H38      H        0.10740    0.37310    0.18190    1.000
    N23      N        0.23670    0.57958    0.47430    1.000
    C63      C        0.16799    0.49730    0.35780    1.000
    N24      N        0.35454    0.68341    0.64670    1.000
    C64      C        0.12320    0.54718    0.33300    1.000
    H39      H        0.12830    0.59240    0.37480    1.000
    N25      N        0.28415    0.78698    0.50920    1.000
    C65      C        0.22379    0.51249    0.44800    1.000
    N26      N        0.43095    0.30587    0.71530    1.000
    C66      C        0.25964    0.45753    0.49910    1.000
    H40      H        0.24870    0.41090    0.47660    1.000
    C67      C        0.31185    0.47217    0.58370    1.000
    C68      C        0.35264    0.41495    0.63180    1.000
    C69      C        0.35667    0.35415    0.54480    1.000
    H41      H        0.33250    0.34860    0.45550    1.000
    C70      C        0.39615    0.30207    0.58950    1.000
    H42      H        0.39880    0.26150    0.52790    1.000
    C71      C        0.42673    0.36398    0.79910    1.000
    H43      H        0.45090    0.36750    0.88900    1.000
    C72      C        0.38899    0.41933    0.76180    1.000
    H44      H        0.38800    0.45970    0.82430    1.000
    C73      C        0.32497    0.54179    0.61470    1.000
    H45      H        0.35930    0.55390    0.67500    1.000
    C74      C        0.28679    0.59354    0.55580    1.000
    C75      C        0.30325    0.66796    0.57190    1.000
    C76      C        0.37064    0.75069    0.65080    1.000
    H46      H        0.40680    0.76370    0.70290    1.000
    C77      C        0.33599    0.80156    0.58130    1.000
    H47      H        0.34950    0.84840    0.58500    1.000
    C78      C        0.26815    0.71995    0.50490    1.000
    H48      H        0.23150    0.70740    0.45440    1.000
    Cu1      Cu       0.50000    0.10498    0.25000    1.000
    Cu2      Cu       0.00000    0.60498    0.25000    1.000
    Cu3      Cu       0.50000    0.23146    0.75000    1.000
    Cu4      Cu       0.00000    0.73146    0.75000    1.000
    C79      C        0.00124    0.34728    0.94330    1.000
    C80      C        0.99857    0.31676    0.05690    1.000
    N27      N        0.07297    0.46716    0.75144    1.000
    C81      C        0.06902    0.53146    0.69230    1.000
    H49      H        0.03540    0.54290    0.62870    1.000
    N28      N        0.16248    0.56792    0.80420    1.000
    C82      C        0.11289    0.58144    0.72180    1.000
    H50      H        0.10740    0.62690    0.68190    1.000
    N29      N        0.23670    0.42042    0.97430    1.000
    C83      C        0.16799    0.50270    0.85780    1.000
    N30      N        0.35454    0.31659    0.14670    1.000
    C84      C        0.12320    0.45282    0.83300    1.000
    H51      H        0.12830    0.40760    0.87480    1.000
    N31      N        0.28415    0.21302    0.00920    1.000
    C85      C        0.22379    0.48751    0.94800    1.000
    N32      N        0.43095    0.69413    0.21530    1.000
    C86      C        0.25964    0.54247    0.99910    1.000
    H52      H        0.24870    0.58910    0.97660    1.000
    C87      C        0.31185    0.52783    0.08370    1.000
    C88      C        0.35264    0.58505    0.13180    1.000
    C89      C        0.35667    0.64585    0.04480    1.000
    H53      H        0.33250    0.65140    0.95550    1.000
    C90      C        0.39615    0.69793    0.08950    1.000
    H54      H        0.39880    0.73850    0.02790    1.000
    C91      C        0.42673    0.63602    0.29910    1.000
    H55      H        0.45090    0.63250    0.38900    1.000
    C92      C        0.38899    0.58067    0.26180    1.000
    H56      H        0.38800    0.54030    0.32430    1.000
    C93      C        0.32497    0.45821    0.11470    1.000
    H57      H        0.35930    0.44610    0.17500    1.000
    C94      C        0.28679    0.40646    0.05580    1.000
    C95      C        0.30325    0.33204    0.07190    1.000
    C96      C        0.37064    0.24931    0.15080    1.000
    H58      H        0.40680    0.23630    0.20290    1.000
    C97      C        0.33599    0.19844    0.08130    1.000
    H59      H        0.34950    0.15160    0.08500    1.000
    C98      C        0.26815    0.28005    0.00490    1.000
    H60      H        0.23150    0.29260    0.95440    1.000
    N33      N        0.99876    0.34728    0.55670    1.000
    C99      C        0.00143    0.31676    0.44310    1.000
    N34      N        0.92703    0.46716    0.74856    1.000
    C100     C        0.93098    0.53146    0.80770    1.000
    H61      H        0.96460    0.54290    0.87130    1.000
    N35      N        0.83752    0.56792    0.69580    1.000
    C101     C        0.88711    0.58144    0.77820    1.000
    H62      H        0.89260    0.62690    0.81810    1.000
    N36      N        0.76330    0.42042    0.52570    1.000
    C102     C        0.83201    0.50270    0.64220    1.000
    N37      N        0.64546    0.31659    0.35330    1.000
    C103     C        0.87680    0.45282    0.66700    1.000
    H63      H        0.87170    0.40760    0.62520    1.000
    N38      N        0.71585    0.21302    0.49080    1.000
    C104     C        0.77621    0.48751    0.55200    1.000
    N39      N        0.56905    0.69413    0.28470    1.000
    C105     C        0.74036    0.54247    0.50090    1.000
    H64      H        0.75130    0.58910    0.52340    1.000
    C106     C        0.68815    0.52783    0.41630    1.000
    C107     C        0.64736    0.58505    0.36820    1.000
    C108     C        0.64333    0.64585    0.45520    1.000
    H65      H        0.66750    0.65140    0.54450    1.000
    C109     C        0.60385    0.69793    0.41050    1.000
    H66      H        0.60120    0.73850    0.47210    1.000
    C110     C        0.57327    0.63602    0.20090    1.000
    H67      H        0.54910    0.63250    0.11100    1.000
    C111     C        0.61101    0.58067    0.23820    1.000
    H68      H        0.61200    0.54030    0.17570    1.000
    C112     C        0.67503    0.45821    0.38530    1.000
    H69      H        0.64070    0.44610    0.32500    1.000
    C113     C        0.71321    0.40646    0.44420    1.000
    C114     C        0.69675    0.33204    0.42810    1.000
    C115     C        0.62936    0.24931    0.34920    1.000
    H70      H        0.59320    0.23630    0.29710    1.000
    C116     C        0.66401    0.19844    0.41870    1.000
    H71      H        0.65050    0.15160    0.41500    1.000
    C117     C        0.73185    0.28005    0.49510    1.000
    H72      H        0.76850    0.29260    0.54560    1.000
    C118     C        0.50124    0.84728    0.55670    1.000
    C119     C        0.49857    0.81676    0.44310    1.000
    N40      N        0.57297    0.96716    0.74856    1.000
    C120     C        0.56902    0.03146    0.80770    1.000
    H73      H        0.53540    0.04290    0.87130    1.000
    N41      N        0.66248    0.06792    0.69580    1.000
    C121     C        0.61289    0.08144    0.77820    1.000
    H74      H        0.60740    0.12690    0.81810    1.000
    N42      N        0.73670    0.92042    0.52570    1.000
    C122     C        0.66799    0.00270    0.64220    1.000
    N43      N        0.85454    0.81659    0.35330    1.000
    C123     C        0.62320    0.95282    0.66700    1.000
    H75      H        0.62830    0.90760    0.62520    1.000
    N44      N        0.78415    0.71302    0.49080    1.000
    C124     C        0.72379    0.98751    0.55200    1.000
    N45      N        0.93095    0.19413    0.28470    1.000
    C125     C        0.75964    0.04247    0.50090    1.000
    H76      H        0.74870    0.08910    0.52340    1.000
    C126     C        0.81185    0.02783    0.41630    1.000
    C127     C        0.85264    0.08505    0.36820    1.000
    C128     C        0.85667    0.14585    0.45520    1.000
    H77      H        0.83250    0.15140    0.54450    1.000
    C129     C        0.89615    0.19793    0.41050    1.000
    H78      H        0.89880    0.23850    0.47210    1.000
    C130     C        0.92673    0.13602    0.20090    1.000
    H79      H        0.95090    0.13250    0.11100    1.000
    C131     C        0.88899    0.08067    0.23820    1.000
    H80      H        0.88800    0.04030    0.17570    1.000
    C132     C        0.82497    0.95821    0.38530    1.000
    H81      H        0.85930    0.94610    0.32500    1.000
    C133     C        0.78679    0.90646    0.44420    1.000
    C134     C        0.80325    0.83204    0.42810    1.000
    C135     C        0.87064    0.74931    0.34920    1.000
    H82      H        0.90680    0.73630    0.29710    1.000
    C136     C        0.83599    0.69844    0.41870    1.000
    H83      H        0.84950    0.65160    0.41500    1.000
    C137     C        0.76815    0.78005    0.49510    1.000
    H84      H        0.73150    0.79260    0.54560    1.000
    N46      N        0.49876    0.84728    0.94330    1.000
    C138     C        0.50143    0.81676    0.05690    1.000
    N47      N        0.42703    0.96716    0.75144    1.000
    C139     C        0.43098    0.03146    0.69230    1.000
    H85      H        0.46460    0.04290    0.62870    1.000
    N48      N        0.33752    0.06792    0.80420    1.000
    C140     C        0.38711    0.08144    0.72180    1.000
    H86      H        0.39260    0.12690    0.68190    1.000
    N49      N        0.26330    0.92042    0.97430    1.000
    C141     C        0.33201    0.00270    0.85780    1.000
    N50      N        0.14546    0.81659    0.14670    1.000
    C142     C        0.37680    0.95282    0.83300    1.000
    H87      H        0.37170    0.90760    0.87480    1.000
    N51      N        0.21585    0.71302    0.00920    1.000
    C143     C        0.27621    0.98751    0.94800    1.000
    N52      N        0.06905    0.19413    0.21530    1.000
    C144     C        0.24036    0.04247    0.99910    1.000
    H88      H        0.25130    0.08910    0.97660    1.000
    C145     C        0.18815    0.02783    0.08370    1.000
    C146     C        0.14736    0.08505    0.13180    1.000
    C147     C        0.14333    0.14585    0.04480    1.000
    H89      H        0.16750    0.15140    0.95550    1.000
    C148     C        0.10385    0.19793    0.08950    1.000
    H90      H        0.10120    0.23850    0.02790    1.000
    C149     C        0.07327    0.13602    0.29910    1.000
    H91      H        0.04910    0.13250    0.38900    1.000
    C150     C        0.11101    0.08067    0.26180    1.000
    H92      H        0.11200    0.04030    0.32430    1.000
    C151     C        0.17503    0.95821    0.11470    1.000
    H93      H        0.14070    0.94610    0.17500    1.000
    C152     C        0.21321    0.90646    0.05580    1.000
    C153     C        0.19675    0.83204    0.07190    1.000
    C154     C        0.12936    0.74931    0.15080    1.000
    H94      H        0.09320    0.73630    0.20290    1.000
    C155     C        0.16401    0.69844    0.08130    1.000
    H95      H        0.15050    0.65160    0.08500    1.000
    C156     C        0.23185    0.78005    0.00490    1.000
    H96      H        0.26850    0.79260    0.95440    1.000
    Cu5      Cu       0.00000    0.39502    0.75000    1.000
    Cu6      Cu       0.50000    0.89502    0.75000    1.000
    Cu7      Cu       0.00000    0.26854    0.25000    1.000
    Cu8      Cu       0.50000    0.76854    0.25000    1.000
