# CIF file generated by openbabel 3.1.0, see https://openbabel.org
data_I
_chemical_name_common 'image0'
_cell_length_a 11.4917
_cell_length_b 18.524
_cell_length_c 25.727
_cell_angle_alpha 90
_cell_angle_beta 96.28
_cell_angle_gamma 90
_space_group_name_H-M_alt 'P 1'
_space_group_name_Hall 'P 1'
loop_
    _symmetry_equiv_pos_as_xyz
    x,y,z
loop_
    _atom_site_label
    _atom_site_type_symbol
    _atom_site_fract_x
    _atom_site_fract_y
    _atom_site_fract_z
    _atom_site_occupancy
    C1       C        0.46340    0.71130    0.19187    1.000
    C2       C        0.57550    0.73130    0.18992    1.000
    C3       C        0.64680    0.76680    0.23472    1.000
    C4       C        0.61100    0.83070    0.25500    1.000
    H1       H        0.53960    0.85220    0.24050    1.000
    C5       C        0.67730    0.86390    0.29590    1.000
    H2       H        0.65120    0.90820    0.30920    1.000
    C6       C        0.78080    0.83390    0.31772    1.000
    C7       C        0.81820    0.77070    0.29734    1.000
    H3       H        0.88930    0.74910    0.31210    1.000
    C8       C        0.75300    0.73820    0.25560    1.000
    H4       H        0.78150    0.69550    0.24090    1.000
    C9       C        0.40510    0.71320    0.24092    1.000
    C10      C        0.45410    0.67780    0.28546    1.000
    H5       H        0.52740    0.65410    0.28560    1.000
    C11      C        0.39540    0.67690    0.33010    1.000
    H6       H        0.42980    0.65250    0.36050    1.000
    C12      C        0.28860    0.71050    0.33126    1.000
    C13      C        0.24090    0.74650    0.28698    1.000
    H7       H        0.16840    0.77100    0.28720    1.000
    C14      C        0.29810    0.74710    0.24227    1.000
    H8       H        0.26310    0.77120    0.21190    1.000
    C15      C        0.38700    0.68450    0.14526    1.000
    C16      C        0.32820    0.61970    0.14800    1.000
    H9       H        0.33880    0.59220    0.17940    1.000
    C17      C        0.25410    0.59390    0.10597    1.000
    H10      H        0.21590    0.54880    0.10850    1.000
    C18      C        0.23580    0.63400    0.06020    1.000
    C19      C        0.29410    0.69950    0.05682    1.000
    H11      H        0.28180    0.72740    0.02570    1.000
    C20      C        0.37040    0.72420    0.09886    1.000
    H12      H        0.41140    0.76830    0.09600    1.000
    C21      C        0.63960    0.71870    0.14348    1.000
    C22      C        0.70270    0.77400    0.12308    1.000
    H13      H        0.70170    0.82100    0.13790    1.000
    C23      C        0.76710    0.76140    0.08141    1.000
    H14      H        0.80830    0.80000    0.06740    1.000
    C24      C        0.77150    0.69350    0.06026    1.000
    C25      C        0.70790    0.63750    0.08016    1.000
    H15      H        0.70940    0.59050    0.06540    1.000
    C26      C        0.64270    0.65050    0.12125    1.000
    H16      H        0.59930    0.61230    0.13450    1.000
    C27      C        0.15070    0.60780    0.01634    1.000
    C28      C        0.22530    0.70870    0.37960    1.000
    C29      C        0.84830    0.86970    0.36323    1.000
    C30      C        0.84730    0.67840    0.01758    1.000
    Cd1      Cd       0.03830    0.43733    0.05366    1.000
    Cd2      Cd       0.02417    0.75042    0.94172    1.000
    O1       O        0.10470    0.54629    0.01959    1.000
    O2       O        0.12380    0.64754    0.97681    1.000
    O3       O        0.86660    0.61228    0.00880    1.000
    O4       O        0.88600    0.73050    0.99471    1.000
    O5       O        0.27580    0.68690    0.42050    1.000
    O6       O        0.12650    0.73270    0.37582    1.000
    O7       O        0.93890    0.83982    0.38560    1.000
    O8       O        0.81410    0.92922    0.37857    1.000
    C31      C        0.53660    0.21130    0.30813    1.000
    C32      C        0.42450    0.23130    0.31008    1.000
    C33      C        0.35320    0.26680    0.26528    1.000
    C34      C        0.38900    0.33070    0.24500    1.000
    H17      H        0.46040    0.35220    0.25950    1.000
    C35      C        0.32270    0.36390    0.20410    1.000
    H18      H        0.34880    0.40820    0.19080    1.000
    C36      C        0.21920    0.33390    0.18228    1.000
    C37      C        0.18180    0.27070    0.20266    1.000
    H19      H        0.11070    0.24910    0.18790    1.000
    C38      C        0.24700    0.23820    0.24440    1.000
    H20      H        0.21850    0.19550    0.25910    1.000
    C39      C        0.59490    0.21320    0.25908    1.000
    C40      C        0.54590    0.17780    0.21454    1.000
    H21      H        0.47260    0.15410    0.21440    1.000
    C41      C        0.60460    0.17690    0.16990    1.000
    H22      H        0.57020    0.15250    0.13950    1.000
    C42      C        0.71140    0.21050    0.16874    1.000
    C43      C        0.75910    0.24650    0.21302    1.000
    H23      H        0.83160    0.27100    0.21280    1.000
    C44      C        0.70190    0.24710    0.25773    1.000
    H24      H        0.73690    0.27120    0.28810    1.000
    C45      C        0.61300    0.18450    0.35474    1.000
    C46      C        0.67180    0.11970    0.35200    1.000
    H25      H        0.66120    0.09220    0.32060    1.000
    C47      C        0.74590    0.09390    0.39403    1.000
    H26      H        0.78410    0.04880    0.39150    1.000
    C48      C        0.76420    0.13400    0.43980    1.000
    C49      C        0.70590    0.19950    0.44318    1.000
    H27      H        0.71820    0.22740    0.47430    1.000
    C50      C        0.62960    0.22420    0.40114    1.000
    H28      H        0.58860    0.26830    0.40400    1.000
    C51      C        0.36040    0.21870    0.35652    1.000
    C52      C        0.29730    0.27400    0.37692    1.000
    H29      H        0.29830    0.32100    0.36210    1.000
    C53      C        0.23290    0.26140    0.41859    1.000
    H30      H        0.19170    0.30000    0.43260    1.000
    C54      C        0.22850    0.19350    0.43974    1.000
    C55      C        0.29210    0.13750    0.41984    1.000
    H31      H        0.29060    0.09050    0.43460    1.000
    C56      C        0.35730    0.15050    0.37875    1.000
    H32      H        0.40070    0.11230    0.36550    1.000
    C57      C        0.84930    0.10780    0.48366    1.000
    C58      C        0.77470    0.20870    0.12040    1.000
    C59      C        0.15170    0.36970    0.13677    1.000
    C60      C        0.15270    0.17840    0.48242    1.000
    Cd3      Cd       0.96170    0.93733    0.44634    1.000
    Cd4      Cd       0.97583    0.25042    0.55828    1.000
    O9       O        0.89530    0.04629    0.48041    1.000
    O10      O        0.87620    0.14754    0.52319    1.000
    O11      O        0.13340    0.11228    0.49120    1.000
    O12      O        0.11400    0.23050    0.50529    1.000
    O13      O        0.72420    0.18690    0.07950    1.000
    O14      O        0.87350    0.23270    0.12418    1.000
    O15      O        0.06110    0.33982    0.11440    1.000
    O16      O        0.18590    0.42922    0.12143    1.000
    C61      C        0.53660    0.28870    0.80813    1.000
    C62      C        0.42450    0.26870    0.81008    1.000
    C63      C        0.35320    0.23320    0.76528    1.000
    C64      C        0.38900    0.16930    0.74500    1.000
    H33      H        0.46040    0.14780    0.75950    1.000
    C65      C        0.32270    0.13610    0.70410    1.000
    H34      H        0.34880    0.09180    0.69080    1.000
    C66      C        0.21920    0.16610    0.68228    1.000
    C67      C        0.18180    0.22930    0.70266    1.000
    H35      H        0.11070    0.25090    0.68790    1.000
    C68      C        0.24700    0.26180    0.74440    1.000
    H36      H        0.21850    0.30450    0.75910    1.000
    C69      C        0.59490    0.28680    0.75908    1.000
    C70      C        0.54590    0.32220    0.71454    1.000
    H37      H        0.47260    0.34590    0.71440    1.000
    C71      C        0.60460    0.32310    0.66990    1.000
    H38      H        0.57020    0.34750    0.63950    1.000
    C72      C        0.71140    0.28950    0.66874    1.000
    C73      C        0.75910    0.25350    0.71302    1.000
    H39      H        0.83160    0.22900    0.71280    1.000
    C74      C        0.70190    0.25290    0.75773    1.000
    H40      H        0.73690    0.22880    0.78810    1.000
    C75      C        0.61300    0.31550    0.85474    1.000
    C76      C        0.67180    0.38030    0.85200    1.000
    H41      H        0.66120    0.40780    0.82060    1.000
    C77      C        0.74590    0.40610    0.89403    1.000
    H42      H        0.78410    0.45120    0.89150    1.000
    C78      C        0.76420    0.36600    0.93980    1.000
    C79      C        0.70590    0.30050    0.94318    1.000
    H43      H        0.71820    0.27260    0.97430    1.000
    C80      C        0.62960    0.27580    0.90114    1.000
    H44      H        0.58860    0.23170    0.90400    1.000
    C81      C        0.36040    0.28130    0.85652    1.000
    C82      C        0.29730    0.22600    0.87692    1.000
    H45      H        0.29830    0.17900    0.86210    1.000
    C83      C        0.23290    0.23860    0.91859    1.000
    H46      H        0.19170    0.20000    0.93260    1.000
    C84      C        0.22850    0.30650    0.93974    1.000
    C85      C        0.29210    0.36250    0.91984    1.000
    H47      H        0.29060    0.40950    0.93460    1.000
    C86      C        0.35730    0.34950    0.87875    1.000
    H48      H        0.40070    0.38770    0.86550    1.000
    C87      C        0.84930    0.39220    0.98366    1.000
    C88      C        0.77470    0.29130    0.62040    1.000
    C89      C        0.15170    0.13030    0.63677    1.000
    C90      C        0.15270    0.32160    0.98242    1.000
    Cd5      Cd       0.96170    0.56267    0.94634    1.000
    Cd6      Cd       0.97583    0.24958    0.05828    1.000
    O17      O        0.89530    0.45371    0.98041    1.000
    O18      O        0.87620    0.35246    0.02319    1.000
    O19      O        0.13340    0.38772    0.99120    1.000
    O20      O        0.11400    0.26950    0.00529    1.000
    O21      O        0.72420    0.31310    0.57950    1.000
    O22      O        0.87350    0.26730    0.62418    1.000
    O23      O        0.06110    0.16018    0.61440    1.000
    O24      O        0.18590    0.07078    0.62143    1.000
    C91      C        0.46340    0.78870    0.69187    1.000
    C92      C        0.57550    0.76870    0.68992    1.000
    C93      C        0.64680    0.73320    0.73472    1.000
    C94      C        0.61100    0.66930    0.75500    1.000
    H49      H        0.53960    0.64780    0.74050    1.000
    C95      C        0.67730    0.63610    0.79590    1.000
    H50      H        0.65120    0.59180    0.80920    1.000
    C96      C        0.78080    0.66610    0.81772    1.000
    C97      C        0.81820    0.72930    0.79734    1.000
    H51      H        0.88930    0.75090    0.81210    1.000
    C98      C        0.75300    0.76180    0.75560    1.000
    H52      H        0.78150    0.80450    0.74090    1.000
    C99      C        0.40510    0.78680    0.74092    1.000
    C100     C        0.45410    0.82220    0.78546    1.000
    H53      H        0.52740    0.84590    0.78560    1.000
    C101     C        0.39540    0.82310    0.83010    1.000
    H54      H        0.42980    0.84750    0.86050    1.000
    C102     C        0.28860    0.78950    0.83126    1.000
    C103     C        0.24090    0.75350    0.78698    1.000
    H55      H        0.16840    0.72900    0.78720    1.000
    C104     C        0.29810    0.75290    0.74227    1.000
    H56      H        0.26310    0.72880    0.71190    1.000
    C105     C        0.38700    0.81550    0.64526    1.000
    C106     C        0.32820    0.88030    0.64800    1.000
    H57      H        0.33880    0.90780    0.67940    1.000
    C107     C        0.25410    0.90610    0.60597    1.000
    H58      H        0.21590    0.95120    0.60850    1.000
    C108     C        0.23580    0.86600    0.56020    1.000
    C109     C        0.29410    0.80050    0.55682    1.000
    H59      H        0.28180    0.77260    0.52570    1.000
    C110     C        0.37040    0.77580    0.59886    1.000
    H60      H        0.41140    0.73170    0.59600    1.000
    C111     C        0.63960    0.78130    0.64348    1.000
    C112     C        0.70270    0.72600    0.62308    1.000
    H61      H        0.70170    0.67900    0.63790    1.000
    C113     C        0.76710    0.73860    0.58141    1.000
    H62      H        0.80830    0.70000    0.56740    1.000
    C114     C        0.77150    0.80650    0.56026    1.000
    C115     C        0.70790    0.86250    0.58016    1.000
    H63      H        0.70940    0.90950    0.56540    1.000
    C116     C        0.64270    0.84950    0.62125    1.000
    H64      H        0.59930    0.88770    0.63450    1.000
    C117     C        0.15070    0.89220    0.51634    1.000
    C118     C        0.22530    0.79130    0.87960    1.000
    C119     C        0.84830    0.63030    0.86323    1.000
    C120     C        0.84730    0.82160    0.51758    1.000
    Cd7      Cd       0.03830    0.06267    0.55366    1.000
    Cd8      Cd       0.02417    0.74958    0.44172    1.000
    O25      O        0.10470    0.95371    0.51959    1.000
    O26      O        0.12380    0.85246    0.47681    1.000
    O27      O        0.86660    0.88772    0.50880    1.000
    O28      O        0.88600    0.76950    0.49471    1.000
    O29      O        0.27580    0.81310    0.92050    1.000
    O30      O        0.12650    0.76730    0.87582    1.000
    O31      O        0.93890    0.66018    0.88560    1.000
    O32      O        0.81410    0.57078    0.87857    1.000
