# CIF file generated by openbabel 3.1.0, see https://openbabel.org
data_I
_chemical_name_common 'image0'
_cell_length_a 10.3716
_cell_length_b 10.3716
_cell_length_c 19.1394
_cell_angle_alpha 90
_cell_angle_beta 90
_cell_angle_gamma 120
_space_group_name_H-M_alt 'P 1'
_space_group_name_Hall 'P 1'
loop_
    _symmetry_equiv_pos_as_xyz
    x,y,z
loop_
    _atom_site_label
    _atom_site_type_symbol
    _atom_site_fract_x
    _atom_site_fract_y
    _atom_site_fract_z
    _atom_site_occupancy
    O1       O        0.65260    0.55260    0.82550    1.000
    C1       C        0.39420    0.37920    0.96610    1.000
    N1       N        0.26100    0.28300    0.92760    1.000
    O2       O        0.44740    0.10000    0.82550    1.000
    C2       C        0.62080    0.01500    0.96610    1.000
    N2       N        0.71700    0.97800    0.92760    1.000
    O3       O        0.90000    0.34740    0.82550    1.000
    C3       C        0.98500    0.60580    0.96610    1.000
    N3       N        0.02200    0.73900    0.92760    1.000
    O4       O        0.34740    0.44740    0.32550    1.000
    C4       C        0.60580    0.62080    0.46610    1.000
    N4       N        0.73900    0.71700    0.42760    1.000
    O5       O        0.55260    0.90000    0.32550    1.000
    C5       C        0.37920    0.98500    0.46610    1.000
    N5       N        0.28300    0.02200    0.42760    1.000
    O6       O        0.10000    0.65260    0.32550    1.000
    C6       C        0.01500    0.39420    0.46610    1.000
    N6       N        0.97800    0.26100    0.42760    1.000
    O7       O        0.55260    0.65260    0.17450    1.000
    C7       C        0.37920    0.39420    0.03390    1.000
    N7       N        0.28300    0.26100    0.07240    1.000
    O8       O        0.10000    0.44740    0.17450    1.000
    C8       C        0.01500    0.62080    0.03390    1.000
    N8       N        0.97800    0.71700    0.07240    1.000
    O9       O        0.34740    0.90000    0.17450    1.000
    C9       C        0.60580    0.98500    0.03390    1.000
    N9       N        0.73900    0.02200    0.07240    1.000
    O10      O        0.44740    0.34740    0.67450    1.000
    C10      C        0.62080    0.60580    0.53390    1.000
    N10      N        0.71700    0.73900    0.57240    1.000
    O11      O        0.90000    0.55260    0.67450    1.000
    C11      C        0.98500    0.37920    0.53390    1.000
    N11      N        0.02200    0.28300    0.57240    1.000
    O12      O        0.65260    0.10000    0.67450    1.000
    C12      C        0.39420    0.01500    0.53390    1.000
    N12      N        0.26100    0.97800    0.57240    1.000
    O13      O        0.34740    0.44740    0.17450    1.000
    C13      C        0.60580    0.62080    0.03390    1.000
    N13      N        0.73900    0.71700    0.07240    1.000
    O14      O        0.55260    0.90000    0.17450    1.000
    C14      C        0.37920    0.98500    0.03390    1.000
    N14      N        0.28300    0.02200    0.07240    1.000
    O15      O        0.10000    0.65260    0.17450    1.000
    C15      C        0.01500    0.39420    0.03390    1.000
    N15      N        0.97800    0.26100    0.07240    1.000
    O16      O        0.65260    0.55260    0.67450    1.000
    C16      C        0.39420    0.37920    0.53390    1.000
    N16      N        0.26100    0.28300    0.57240    1.000
    O17      O        0.44740    0.10000    0.67450    1.000
    C17      C        0.62080    0.01500    0.53390    1.000
    N17      N        0.71700    0.97800    0.57240    1.000
    O18      O        0.90000    0.34740    0.67450    1.000
    C18      C        0.98500    0.60580    0.53390    1.000
    N18      N        0.02200    0.73900    0.57240    1.000
    O19      O        0.44740    0.34740    0.82550    1.000
    C19      C        0.62080    0.60580    0.96610    1.000
    N19      N        0.71700    0.73900    0.92760    1.000
    O20      O        0.90000    0.55260    0.82550    1.000
    C20      C        0.98500    0.37920    0.96610    1.000
    N20      N        0.02200    0.28300    0.92760    1.000
    O21      O        0.65260    0.10000    0.82550    1.000
    C21      C        0.39420    0.01500    0.96610    1.000
    N21      N        0.26100    0.97800    0.92760    1.000
    O22      O        0.55260    0.65260    0.32550    1.000
    C22      C        0.37920    0.39420    0.46610    1.000
    N22      N        0.28300    0.26100    0.42760    1.000
    O23      O        0.10000    0.44740    0.32550    1.000
    C23      C        0.01500    0.62080    0.46610    1.000
    N23      N        0.97800    0.71700    0.42760    1.000
    O24      O        0.34740    0.90000    0.32550    1.000
    C24      C        0.60580    0.98500    0.46610    1.000
    N24      N        0.73900    0.02200    0.42760    1.000
    Fe1      Fe       0.76720    0.53440    0.75000    1.000
    Fe2      Fe       0.46560    0.23280    0.75000    1.000
    Fe3      Fe       0.76720    0.23280    0.75000    1.000
    Fe4      Fe       0.23280    0.46560    0.25000    1.000
    Fe5      Fe       0.53440    0.76720    0.25000    1.000
    Fe6      Fe       0.23280    0.76720    0.25000    1.000
    O25      O        0.66667    0.33333    0.75000    1.000
    O26      O        0.33333    0.66667    0.25000    1.000
    C25      C        0.53990    0.46010    0.85550    1.000
    C26      C        0.51220    0.48780    0.92780    1.000
    C27      C        0.53990    0.07980    0.85550    1.000
    C28      C        0.51220    0.02440    0.92780    1.000
    C29      C        0.92020    0.46010    0.85550    1.000
    C30      C        0.97560    0.48780    0.92780    1.000
    C31      C        0.46010    0.53990    0.35550    1.000
    C32      C        0.48780    0.51220    0.42780    1.000
    C33      C        0.46010    0.92020    0.35550    1.000
    C34      C        0.48780    0.97560    0.42780    1.000
    C35      C        0.07980    0.53990    0.35550    1.000
    C36      C        0.02440    0.51220    0.42780    1.000
    C37      C        0.46010    0.53990    0.14450    1.000
    C38      C        0.48780    0.51220    0.07220    1.000
    C39      C        0.07980    0.53990    0.14450    1.000
    C40      C        0.02440    0.51220    0.07220    1.000
    C41      C        0.46010    0.92020    0.14450    1.000
    C42      C        0.48780    0.97560    0.07220    1.000
    C43      C        0.53990    0.46010    0.64450    1.000
    C44      C        0.51220    0.48780    0.57220    1.000
    C45      C        0.92020    0.46010    0.64450    1.000
    C46      C        0.97560    0.48780    0.57220    1.000
    C47      C        0.53990    0.07980    0.64450    1.000
    C48      C        0.51220    0.02440    0.57220    1.000
