# CIF file generated by openbabel 3.1.0, see https://openbabel.org
data_I
_chemical_name_common 'image0'
_cell_length_a 11.172
_cell_length_b 7.102
_cell_length_c 6.539
_cell_angle_alpha 90
_cell_angle_beta 109.472
_cell_angle_gamma 90
_space_group_name_H-M_alt 'P 1'
_space_group_name_Hall 'P 1'
loop_
    _symmetry_equiv_pos_as_xyz
    x,y,z
loop_
    _atom_site_label
    _atom_site_type_symbol
    _atom_site_fract_x
    _atom_site_fract_y
    _atom_site_fract_z
    _atom_site_occupancy
    O1       O        0.50710    0.09830    0.33460    1.000
    O2       O        0.67040    0.14870    0.11470    1.000
    O3       O        0.84610    0.29360    0.11820    1.000
    C1       C        0.73560    0.24720    0.03360    1.000
    H1       H        0.69530    0.28980    0.89290    1.000
    O4       O        0.00710    0.59830    0.33460    1.000
    O5       O        0.17040    0.64870    0.11470    1.000
    O6       O        0.34610    0.79360    0.11820    1.000
    C2       C        0.23560    0.74720    0.03360    1.000
    H2       H        0.19530    0.78980    0.89290    1.000
    O7       O        0.49290    0.09830    0.66540    1.000
    O8       O        0.32960    0.14870    0.88530    1.000
    O9       O        0.15390    0.29360    0.88180    1.000
    C3       C        0.26440    0.24720    0.96640    1.000
    H3       H        0.30470    0.28980    0.10710    1.000
    O10      O        0.99290    0.59830    0.66540    1.000
    O11      O        0.82960    0.64870    0.88530    1.000
    O12      O        0.65390    0.79360    0.88180    1.000
    C4       C        0.76440    0.74720    0.96640    1.000
    H4       H        0.80470    0.78980    0.10710    1.000
    Tm1      Tm       0.50000    0.95252    0.00000    1.000
    Tm2      Tm       0.00000    0.45252    0.00000    1.000
    C5       C        0.50000    0.01620    0.50000    1.000
    H5       H        0.50000    0.88520    0.50000    1.000
    C6       C        0.00000    0.51620    0.50000    1.000
    H6       H        0.00000    0.38520    0.50000    1.000
