# CIF file generated by openbabel 3.1.0, see https://openbabel.org
data_I
_chemical_name_common 'image0'
_cell_length_a 13.299
_cell_length_b 14.71
_cell_length_c 15.689
_cell_angle_alpha 90
_cell_angle_beta 93.375
_cell_angle_gamma 90
_space_group_name_H-M_alt 'P 1'
_space_group_name_Hall 'P 1'
loop_
    _symmetry_equiv_pos_as_xyz
    x,y,z
loop_
    _atom_site_label
    _atom_site_type_symbol
    _atom_site_fract_x
    _atom_site_fract_y
    _atom_site_fract_z
    _atom_site_occupancy
    N1       N        0.60680    0.90670    0.03860    1.000
    N2       N        0.43220    0.98660    0.11160    1.000
    N3       N        0.42410    0.87290    0.94010    1.000
    N4       N        0.61900    0.83090    0.99420    1.000
    N5       N        0.66850    0.90660    0.10750    1.000
    N6       N        0.38370    0.91310    0.13560    1.000
    N7       N        0.42090    0.05350    0.16660    1.000
    Cu1      Cu       0.53354    0.80677    0.88597    1.000
    N8       N        0.34150    0.85370    0.93850    1.000
    N9       N        0.68900    0.77900    0.03300    1.000
    C1       C        0.71800    0.82780    0.10260    1.000
    C2       C        0.34240    0.93870    0.20740    1.000
    N10      N        0.36420    0.02480    0.22780    1.000
    N11      N        0.93610    0.73760    0.29190    1.000
    N12      N        0.14230    0.76860    0.33610    1.000
    N13      N        0.25880    0.83720    0.93830    1.000
    C3       C        0.79500    0.79590    0.16670    1.000
    C4       C        0.27570    0.87960    0.25330    1.000
    C5       C        0.83220    0.71100    0.16700    1.000
    C6       C        0.82930    0.85210    0.23150    1.000
    C7       C        0.24300    0.79750    0.21930    1.000
    C8       C        0.24040    0.90270    0.33050    1.000
    C9       C        0.90280    0.68390    0.22980    1.000
    H1       H        0.81020    0.67020    0.12450    1.000
    H2       H        0.80640    0.91170    0.23450    1.000
    C10      C        0.89930    0.81830    0.29280    1.000
    C11      C        0.17770    0.74450    0.26130    1.000
    H3       H        0.26570    0.77820    0.16730    1.000
    H4       H        0.26160    0.95660    0.35690    1.000
    C12      C        0.17340    0.84660    0.36950    1.000
    H5       H        0.92790    0.62500    0.22800    1.000
    H6       H        0.92090    0.85660    0.33730    1.000
    H7       H        0.15700    0.68950    0.23690    1.000
    H8       H        0.14940    0.86460    0.42140    1.000
    N14      N        0.89320    0.40670    0.46140    1.000
    N15      N        0.06780    0.48660    0.38840    1.000
    N16      N        0.07590    0.37290    0.55990    1.000
    N17      N        0.88100    0.33090    0.50580    1.000
    N18      N        0.83150    0.40660    0.39250    1.000
    N19      N        0.11630    0.41310    0.36440    1.000
    N20      N        0.07910    0.55350    0.33340    1.000
    Cu2      Cu       0.96646    0.30677    0.61403    1.000
    N21      N        0.15850    0.35370    0.56150    1.000
    N22      N        0.81100    0.27900    0.46700    1.000
    C13      C        0.78200    0.32780    0.39740    1.000
    C14      C        0.15760    0.43870    0.29260    1.000
    N23      N        0.13580    0.52480    0.27220    1.000
    N24      N        0.56390    0.23760    0.20810    1.000
    N25      N        0.35770    0.26860    0.16390    1.000
    N26      N        0.24120    0.33720    0.56170    1.000
    C15      C        0.70500    0.29590    0.33330    1.000
    C16      C        0.22430    0.37960    0.24670    1.000
    C17      C        0.66780    0.21100    0.33300    1.000
    C18      C        0.67070    0.35210    0.26850    1.000
    C19      C        0.25700    0.29750    0.28070    1.000
    C20      C        0.25960    0.40270    0.16950    1.000
    C21      C        0.59720    0.18390    0.27020    1.000
    H9       H        0.68980    0.17020    0.37550    1.000
    H10      H        0.69360    0.41170    0.26550    1.000
    C22      C        0.60070    0.31830    0.20720    1.000
    C23      C        0.32230    0.24450    0.23870    1.000
    H11      H        0.23430    0.27820    0.33270    1.000
    H12      H        0.23840    0.45660    0.14310    1.000
    C24      C        0.32660    0.34660    0.13050    1.000
    H13      H        0.57210    0.12500    0.27200    1.000
    H14      H        0.57910    0.35660    0.16270    1.000
    H15      H        0.34300    0.18950    0.26310    1.000
    H16      H        0.35060    0.36460    0.07860    1.000
    N27      N        0.39320    0.09330    0.96140    1.000
    N28      N        0.56780    0.01340    0.88840    1.000
    N29      N        0.57590    0.12710    0.05990    1.000
    N30      N        0.38100    0.16910    0.00580    1.000
    N31      N        0.33150    0.09340    0.89250    1.000
    N32      N        0.61630    0.08690    0.86440    1.000
    N33      N        0.57910    0.94650    0.83340    1.000
    Cu3      Cu       0.46646    0.19323    0.11403    1.000
    N34      N        0.65850    0.14630    0.06150    1.000
    N35      N        0.31100    0.22100    0.96700    1.000
    C25      C        0.28200    0.17220    0.89740    1.000
    C26      C        0.65760    0.06130    0.79260    1.000
    N36      N        0.63580    0.97520    0.77220    1.000
    N37      N        0.06390    0.26240    0.70810    1.000
    N38      N        0.85770    0.23140    0.66390    1.000
    N39      N        0.74120    0.16280    0.06170    1.000
    C27      C        0.20500    0.20410    0.83330    1.000
    C28      C        0.72430    0.12040    0.74670    1.000
    C29      C        0.16780    0.28900    0.83300    1.000
    C30      C        0.17070    0.14790    0.76850    1.000
    C31      C        0.75700    0.20250    0.78070    1.000
    C32      C        0.75960    0.09730    0.66950    1.000
    C33      C        0.09720    0.31610    0.77020    1.000
    H17      H        0.18980    0.32980    0.87550    1.000
    H18      H        0.19360    0.08830    0.76550    1.000
    C34      C        0.10070    0.18170    0.70720    1.000
    C35      C        0.82230    0.25550    0.73870    1.000
    H19      H        0.73430    0.22180    0.83270    1.000
    H20      H        0.73840    0.04340    0.64310    1.000
    C36      C        0.82660    0.15340    0.63050    1.000
    H21      H        0.07210    0.37500    0.77200    1.000
    H22      H        0.07910    0.14340    0.66270    1.000
    H23      H        0.84300    0.31050    0.76310    1.000
    H24      H        0.85060    0.13540    0.57860    1.000
    N40      N        0.10680    0.59330    0.53860    1.000
    N41      N        0.93220    0.51340    0.61160    1.000
    N42      N        0.92410    0.62710    0.44010    1.000
    N43      N        0.11900    0.66910    0.49420    1.000
    N44      N        0.16850    0.59340    0.60750    1.000
    N45      N        0.88370    0.58690    0.63560    1.000
    N46      N        0.92090    0.44650    0.66660    1.000
    Cu4      Cu       0.03354    0.69323    0.38597    1.000
    N47      N        0.84150    0.64630    0.43850    1.000
    N48      N        0.18900    0.72100    0.53300    1.000
    C37      C        0.21800    0.67220    0.60260    1.000
    C38      C        0.84240    0.56130    0.70740    1.000
    N49      N        0.86420    0.47520    0.72780    1.000
    N50      N        0.43610    0.76240    0.79190    1.000
    N51      N        0.64230    0.73140    0.83610    1.000
    N52      N        0.75880    0.66280    0.43830    1.000
    C39      C        0.29500    0.70410    0.66670    1.000
    C40      C        0.77570    0.62040    0.75330    1.000
    C41      C        0.33220    0.78900    0.66700    1.000
    C42      C        0.32930    0.64790    0.73150    1.000
    C43      C        0.74300    0.70250    0.71930    1.000
    C44      C        0.74040    0.59730    0.83050    1.000
    C45      C        0.40280    0.81610    0.72980    1.000
    H25      H        0.31020    0.82980    0.62450    1.000
    H26      H        0.30640    0.58830    0.73450    1.000
    C46      C        0.39930    0.68170    0.79280    1.000
    C47      C        0.67770    0.75550    0.76130    1.000
    H27      H        0.76570    0.72180    0.66730    1.000
    H28      H        0.76160    0.54340    0.85690    1.000
    C48      C        0.67340    0.65340    0.86950    1.000
    H29      H        0.42790    0.87500    0.72800    1.000
    H30      H        0.42090    0.64340    0.83730    1.000
    H31      H        0.65700    0.81050    0.73690    1.000
    H32      H        0.64940    0.63540    0.92140    1.000
    Cu5      Cu       0.50000    0.00000    0.00000    1.000
    Cu6      Cu       0.00000    0.50000    0.50000    1.000
