# CIF file generated by openbabel 3.1.0, see https://openbabel.org
data_I
_chemical_name_common 'image0'
_cell_length_a 30.685
_cell_length_b 15.5835
_cell_length_c 22.0529
_cell_angle_alpha 90
_cell_angle_beta 132.984
_cell_angle_gamma 90
_space_group_name_H-M_alt 'P 1'
_space_group_name_Hall 'P 1'
loop_
    _symmetry_equiv_pos_as_xyz
    x,y,z
loop_
    _atom_site_label
    _atom_site_type_symbol
    _atom_site_fract_x
    _atom_site_fract_y
    _atom_site_fract_z
    _atom_site_occupancy
    W1       W        0.05303    0.13553    0.44942    1.000
    W2       W        0.92419    0.02375    0.29015    1.000
    W3       W        0.12807    0.02384    0.40901    1.000
    W4       W        0.92342    0.24729    0.29039    1.000
    W5       W        0.13024    0.24694    0.40873    1.000
    Ce1      Ce       0.88972    0.64227    0.32851    1.000
    Ce2      Ce       0.83092    0.62693    0.98638    1.000
    N1       N        0.84200    0.50320    0.24530    1.000
    N2       N        0.13230    0.76660    0.53430    1.000
    C1       C        0.17400    0.82370    0.59770    1.000
    C2       C        0.76410    0.37820    0.13510    1.000
    H1       H        0.73720    0.33630    0.09730    1.000
    C3       C        0.03200    0.71100    0.42310    1.000
    C4       C        0.82980    0.49200    0.17600    1.000
    C5       C        0.78960    0.42680    0.11690    1.000
    H2       H        0.78170    0.41890    0.06840    1.000
    C6       C        0.07450    0.78310    0.48730    1.000
    C7       C        0.23850    0.79820    0.64640    1.000
    C8       C        0.83800    0.46280    0.34680    1.000
    C9       C        0.85880    0.55600    0.16320    1.000
    C10      C        0.05590    0.85480    0.49860    1.000
    H3       H        0.01550    0.86490    0.46580    1.000
    C11      C        0.77550    0.38670    0.20560    1.000
    H4       H        0.75560    0.35400    0.21560    1.000
    C12      C        0.09760    0.91340    0.55940    1.000
    H5       H        0.08490    0.96310    0.56670    1.000
    C13      C        0.81920    0.44800    0.26400    1.000
    C14      C        0.15710    0.89860    0.60850    1.000
    H6       H        0.18530    0.93840    0.64810    1.000
    O1       O        0.27780    0.84490    0.70470    1.000
    O2       O        0.24550    0.73310    0.62450    1.000
    O3       O        0.97930    0.72060    0.38190    1.000
    O4       O        0.05740    0.64940    0.42180    1.000
    O5       O        0.85080    0.54760    0.10100    1.000
    O6       O        0.88850    0.61550    0.21620    1.000
    O7       O        0.82430    0.40580    0.37190    1.000
    O8       O        0.86560    0.53170    0.38320    1.000
    O9       O        0.13410    0.25600    0.32610    1.000
    O10      O        0.10280    0.05440    0.46280    1.000
    O11      O        0.16010    0.13860    0.43110    1.000
    O12      O        0.99470    0.05160    0.40100    1.000
    O13      O        0.96800    0.93490    0.29540    1.000
    O14      O        0.10260    0.21640    0.46000    1.000
    O15      O        0.99590    0.22320    0.39940    1.000
    O16      O        0.89530    0.14170    0.28060    1.000
    O17      O        0.96370    0.06600    0.22900    1.000
    O18      O        0.95060    0.13600    0.16680    1.000
    O19      O        0.98590    0.14100    0.29800    1.000
    O20      O        0.13140    0.01500    0.32600    1.000
    O21      O        0.03400    0.33800    0.20630    1.000
    O22      O        0.07700    0.34100    0.35850    1.000
    O23      O        0.07380    0.92800    0.35470    1.000
    O24      O        0.03610    0.20500    0.26900    1.000
    W6       W        0.55303    0.63553    0.44942    1.000
    W7       W        0.42419    0.52375    0.29015    1.000
    W8       W        0.62807    0.52384    0.40901    1.000
    W9       W        0.42342    0.74729    0.29039    1.000
    W10      W        0.63024    0.74694    0.40873    1.000
    Ce3      Ce       0.38972    0.14227    0.32851    1.000
    Ce4      Ce       0.33092    0.12693    0.98638    1.000
    N3       N        0.34200    0.00320    0.24530    1.000
    N4       N        0.63230    0.26660    0.53430    1.000
    C15      C        0.67400    0.32370    0.59770    1.000
    C16      C        0.26410    0.87820    0.13510    1.000
    H7       H        0.23720    0.83630    0.09730    1.000
    C17      C        0.53200    0.21100    0.42310    1.000
    C18      C        0.32980    0.99200    0.17600    1.000
    C19      C        0.28960    0.92680    0.11690    1.000
    H8       H        0.28170    0.91890    0.06840    1.000
    C20      C        0.57450    0.28310    0.48730    1.000
    C21      C        0.73850    0.29820    0.64640    1.000
    C22      C        0.33800    0.96280    0.34680    1.000
    C23      C        0.35880    0.05600    0.16320    1.000
    C24      C        0.55590    0.35480    0.49860    1.000
    H9       H        0.51550    0.36490    0.46580    1.000
    C25      C        0.27550    0.88670    0.20560    1.000
    H10      H        0.25560    0.85400    0.21560    1.000
    C26      C        0.59760    0.41340    0.55940    1.000
    H11      H        0.58490    0.46310    0.56670    1.000
    C27      C        0.31920    0.94800    0.26400    1.000
    C28      C        0.65710    0.39860    0.60850    1.000
    H12      H        0.68530    0.43840    0.64810    1.000
    O25      O        0.77780    0.34490    0.70470    1.000
    O26      O        0.74550    0.23310    0.62450    1.000
    O27      O        0.47930    0.22060    0.38190    1.000
    O28      O        0.55740    0.14940    0.42180    1.000
    O29      O        0.35080    0.04760    0.10100    1.000
    O30      O        0.38850    0.11550    0.21620    1.000
    O31      O        0.32430    0.90580    0.37190    1.000
    O32      O        0.36560    0.03170    0.38320    1.000
    O33      O        0.63410    0.75600    0.32610    1.000
    O34      O        0.60280    0.55440    0.46280    1.000
    O35      O        0.66010    0.63860    0.43110    1.000
    O36      O        0.49470    0.55160    0.40100    1.000
    O37      O        0.46800    0.43490    0.29540    1.000
    O38      O        0.60260    0.71640    0.46000    1.000
    O39      O        0.49590    0.72320    0.39940    1.000
    O40      O        0.39530    0.64170    0.28060    1.000
    O41      O        0.46370    0.56600    0.22900    1.000
    O42      O        0.45060    0.63600    0.16680    1.000
    O43      O        0.48590    0.64100    0.29800    1.000
    O44      O        0.63140    0.51500    0.32600    1.000
    O45      O        0.53400    0.83800    0.20630    1.000
    O46      O        0.57700    0.84100    0.35850    1.000
    O47      O        0.57380    0.42800    0.35470    1.000
    O48      O        0.53610    0.70500    0.26900    1.000
    W11      W        0.94697    0.13553    0.05058    1.000
    W12      W        0.07581    0.02375    0.20985    1.000
    W13      W        0.87193    0.02384    0.09099    1.000
    W14      W        0.07658    0.24729    0.20961    1.000
    W15      W        0.86976    0.24694    0.09127    1.000
    Ce5      Ce       0.11028    0.64227    0.17149    1.000
    Ce6      Ce       0.16908    0.62693    0.51362    1.000
    N5       N        0.15800    0.50320    0.25470    1.000
    N6       N        0.86770    0.76660    0.96570    1.000
    C29      C        0.82600    0.82370    0.90230    1.000
    C30      C        0.23590    0.37820    0.36490    1.000
    H13      H        0.26280    0.33630    0.40270    1.000
    C31      C        0.96800    0.71100    0.07690    1.000
    C32      C        0.17020    0.49200    0.32400    1.000
    C33      C        0.21040    0.42680    0.38310    1.000
    H14      H        0.21830    0.41890    0.43160    1.000
    C34      C        0.92550    0.78310    0.01270    1.000
    C35      C        0.76150    0.79820    0.85360    1.000
    C36      C        0.16200    0.46280    0.15320    1.000
    C37      C        0.14120    0.55600    0.33680    1.000
    C38      C        0.94410    0.85480    0.00140    1.000
    H15      H        0.98450    0.86490    0.03420    1.000
    C39      C        0.22450    0.38670    0.29440    1.000
    H16      H        0.24440    0.35400    0.28440    1.000
    C40      C        0.90240    0.91340    0.94060    1.000
    H17      H        0.91510    0.96310    0.93330    1.000
    C41      C        0.18080    0.44800    0.23600    1.000
    C42      C        0.84290    0.89860    0.89150    1.000
    H18      H        0.81470    0.93840    0.85190    1.000
    O49      O        0.72220    0.84490    0.79530    1.000
    O50      O        0.75450    0.73310    0.87550    1.000
    O51      O        0.02070    0.72060    0.11810    1.000
    O52      O        0.94260    0.64940    0.07820    1.000
    O53      O        0.14920    0.54760    0.39900    1.000
    O54      O        0.11150    0.61550    0.28380    1.000
    O55      O        0.17570    0.40580    0.12810    1.000
    O56      O        0.13440    0.53170    0.11680    1.000
    O57      O        0.86590    0.25600    0.17390    1.000
    O58      O        0.89720    0.05440    0.03720    1.000
    O59      O        0.83990    0.13860    0.06890    1.000
    O60      O        0.00530    0.05160    0.09900    1.000
    O61      O        0.03200    0.93490    0.20460    1.000
    O62      O        0.89740    0.21640    0.04000    1.000
    O63      O        0.00410    0.22320    0.10060    1.000
    O64      O        0.10470    0.14170    0.21940    1.000
    O65      O        0.03630    0.06600    0.27100    1.000
    O66      O        0.04940    0.13600    0.33320    1.000
    O67      O        0.01410    0.14100    0.20200    1.000
    O68      O        0.86860    0.01500    0.17400    1.000
    O69      O        0.96600    0.33800    0.29370    1.000
    O70      O        0.92300    0.34100    0.14150    1.000
    O71      O        0.92620    0.92800    0.14530    1.000
    O72      O        0.96390    0.20500    0.23100    1.000
    W16      W        0.44697    0.63553    0.05058    1.000
    W17      W        0.57581    0.52375    0.20985    1.000
    W18      W        0.37193    0.52384    0.09099    1.000
    W19      W        0.57658    0.74729    0.20961    1.000
    W20      W        0.36976    0.74694    0.09127    1.000
    Ce7      Ce       0.61028    0.14227    0.17149    1.000
    Ce8      Ce       0.66908    0.12693    0.51362    1.000
    N7       N        0.65800    0.00320    0.25470    1.000
    N8       N        0.36770    0.26660    0.96570    1.000
    C43      C        0.32600    0.32370    0.90230    1.000
    C44      C        0.73590    0.87820    0.36490    1.000
    H19      H        0.76280    0.83630    0.40270    1.000
    C45      C        0.46800    0.21100    0.07690    1.000
    C46      C        0.67020    0.99200    0.32400    1.000
    C47      C        0.71040    0.92680    0.38310    1.000
    H20      H        0.71830    0.91890    0.43160    1.000
    C48      C        0.42550    0.28310    0.01270    1.000
    C49      C        0.26150    0.29820    0.85360    1.000
    C50      C        0.66200    0.96280    0.15320    1.000
    C51      C        0.64120    0.05600    0.33680    1.000
    C52      C        0.44410    0.35480    0.00140    1.000
    H21      H        0.48450    0.36490    0.03420    1.000
    C53      C        0.72450    0.88670    0.29440    1.000
    H22      H        0.74440    0.85400    0.28440    1.000
    C54      C        0.40240    0.41340    0.94060    1.000
    H23      H        0.41510    0.46310    0.93330    1.000
    C55      C        0.68080    0.94800    0.23600    1.000
    C56      C        0.34290    0.39860    0.89150    1.000
    H24      H        0.31470    0.43840    0.85190    1.000
    O73      O        0.22220    0.34490    0.79530    1.000
    O74      O        0.25450    0.23310    0.87550    1.000
    O75      O        0.52070    0.22060    0.11810    1.000
    O76      O        0.44260    0.14940    0.07820    1.000
    O77      O        0.64920    0.04760    0.39900    1.000
    O78      O        0.61150    0.11550    0.28380    1.000
    O79      O        0.67570    0.90580    0.12810    1.000
    O80      O        0.63440    0.03170    0.11680    1.000
    O81      O        0.36590    0.75600    0.17390    1.000
    O82      O        0.39720    0.55440    0.03720    1.000
    O83      O        0.33990    0.63860    0.06890    1.000
    O84      O        0.50530    0.55160    0.09900    1.000
    O85      O        0.53200    0.43490    0.20460    1.000
    O86      O        0.39740    0.71640    0.04000    1.000
    O87      O        0.50410    0.72320    0.10060    1.000
    O88      O        0.60470    0.64170    0.21940    1.000
    O89      O        0.53630    0.56600    0.27100    1.000
    O90      O        0.54940    0.63600    0.33320    1.000
    O91      O        0.51410    0.64100    0.20200    1.000
    O92      O        0.36860    0.51500    0.17400    1.000
    O93      O        0.46600    0.83800    0.29370    1.000
    O94      O        0.42300    0.84100    0.14150    1.000
    O95      O        0.42620    0.42800    0.14530    1.000
    O96      O        0.46390    0.70500    0.23100    1.000
    W21      W        0.94697    0.86447    0.55058    1.000
    W22      W        0.07581    0.97625    0.70985    1.000
    W23      W        0.87193    0.97616    0.59099    1.000
    W24      W        0.07658    0.75271    0.70961    1.000
    W25      W        0.86976    0.75306    0.59127    1.000
    Ce9      Ce       0.11028    0.35773    0.67149    1.000
    Ce10     Ce       0.16908    0.37307    0.01362    1.000
    N9       N        0.15800    0.49680    0.75470    1.000
    N10      N        0.86770    0.23340    0.46570    1.000
    C57      C        0.82600    0.17630    0.40230    1.000
    C58      C        0.23590    0.62180    0.86490    1.000
    H25      H        0.26280    0.66370    0.90270    1.000
    C59      C        0.96800    0.28900    0.57690    1.000
    C60      C        0.17020    0.50800    0.82400    1.000
    C61      C        0.21040    0.57320    0.88310    1.000
    H26      H        0.21830    0.58110    0.93160    1.000
    C62      C        0.92550    0.21690    0.51270    1.000
    C63      C        0.76150    0.20180    0.35360    1.000
    C64      C        0.16200    0.53720    0.65320    1.000
    C65      C        0.14120    0.44400    0.83680    1.000
    C66      C        0.94410    0.14520    0.50140    1.000
    H27      H        0.98450    0.13510    0.53420    1.000
    C67      C        0.22450    0.61330    0.79440    1.000
    H28      H        0.24440    0.64600    0.78440    1.000
    C68      C        0.90240    0.08660    0.44060    1.000
    H29      H        0.91510    0.03690    0.43330    1.000
    C69      C        0.18080    0.55200    0.73600    1.000
    C70      C        0.84290    0.10140    0.39150    1.000
    H30      H        0.81470    0.06160    0.35190    1.000
    O97      O        0.72220    0.15510    0.29530    1.000
    O98      O        0.75450    0.26690    0.37550    1.000
    O99      O        0.02070    0.27940    0.61810    1.000
    O100     O        0.94260    0.35060    0.57820    1.000
    O101     O        0.14920    0.45240    0.89900    1.000
    O102     O        0.11150    0.38450    0.78380    1.000
    O103     O        0.17570    0.59420    0.62810    1.000
    O104     O        0.13440    0.46830    0.61680    1.000
    O105     O        0.86590    0.74400    0.67390    1.000
    O106     O        0.89720    0.94560    0.53720    1.000
    O107     O        0.83990    0.86140    0.56890    1.000
    O108     O        0.00530    0.94840    0.59900    1.000
    O109     O        0.03200    0.06510    0.70460    1.000
    O110     O        0.89740    0.78360    0.54000    1.000
    O111     O        0.00410    0.77680    0.60060    1.000
    O112     O        0.10470    0.85830    0.71940    1.000
    O113     O        0.03630    0.93400    0.77100    1.000
    O114     O        0.04940    0.86400    0.83320    1.000
    O115     O        0.01410    0.85900    0.70200    1.000
    O116     O        0.86860    0.98500    0.67400    1.000
    O117     O        0.96600    0.66200    0.79370    1.000
    O118     O        0.92300    0.65900    0.64150    1.000
    O119     O        0.92620    0.07200    0.64530    1.000
    O120     O        0.96390    0.79500    0.73100    1.000
    W26      W        0.44697    0.36447    0.55058    1.000
    W27      W        0.57581    0.47625    0.70985    1.000
    W28      W        0.37193    0.47616    0.59099    1.000
    W29      W        0.57658    0.25271    0.70961    1.000
    W30      W        0.36976    0.25306    0.59127    1.000
    Ce11     Ce       0.61028    0.85773    0.67149    1.000
    Ce12     Ce       0.66908    0.87307    0.01362    1.000
    N11      N        0.65800    0.99680    0.75470    1.000
    N12      N        0.36770    0.73340    0.46570    1.000
    C71      C        0.32600    0.67630    0.40230    1.000
    C72      C        0.73590    0.12180    0.86490    1.000
    H31      H        0.76280    0.16370    0.90270    1.000
    C73      C        0.46800    0.78900    0.57690    1.000
    C74      C        0.67020    0.00800    0.82400    1.000
    C75      C        0.71040    0.07320    0.88310    1.000
    H32      H        0.71830    0.08110    0.93160    1.000
    C76      C        0.42550    0.71690    0.51270    1.000
    C77      C        0.26150    0.70180    0.35360    1.000
    C78      C        0.66200    0.03720    0.65320    1.000
    C79      C        0.64120    0.94400    0.83680    1.000
    C80      C        0.44410    0.64520    0.50140    1.000
    H33      H        0.48450    0.63510    0.53420    1.000
    C81      C        0.72450    0.11330    0.79440    1.000
    H34      H        0.74440    0.14600    0.78440    1.000
    C82      C        0.40240    0.58660    0.44060    1.000
    H35      H        0.41510    0.53690    0.43330    1.000
    C83      C        0.68080    0.05200    0.73600    1.000
    C84      C        0.34290    0.60140    0.39150    1.000
    H36      H        0.31470    0.56160    0.35190    1.000
    O121     O        0.22220    0.65510    0.29530    1.000
    O122     O        0.25450    0.76690    0.37550    1.000
    O123     O        0.52070    0.77940    0.61810    1.000
    O124     O        0.44260    0.85060    0.57820    1.000
    O125     O        0.64920    0.95240    0.89900    1.000
    O126     O        0.61150    0.88450    0.78380    1.000
    O127     O        0.67570    0.09420    0.62810    1.000
    O128     O        0.63440    0.96830    0.61680    1.000
    O129     O        0.36590    0.24400    0.67390    1.000
    O130     O        0.39720    0.44560    0.53720    1.000
    O131     O        0.33990    0.36140    0.56890    1.000
    O132     O        0.50530    0.44840    0.59900    1.000
    O133     O        0.53200    0.56510    0.70460    1.000
    O134     O        0.39740    0.28360    0.54000    1.000
    O135     O        0.50410    0.27680    0.60060    1.000
    O136     O        0.60470    0.35830    0.71940    1.000
    O137     O        0.53630    0.43400    0.77100    1.000
    O138     O        0.54940    0.36400    0.83320    1.000
    O139     O        0.51410    0.35900    0.70200    1.000
    O140     O        0.36860    0.48500    0.67400    1.000
    O141     O        0.46600    0.16200    0.79370    1.000
    O142     O        0.42300    0.15900    0.64150    1.000
    O143     O        0.42620    0.57200    0.64530    1.000
    O144     O        0.46390    0.29500    0.73100    1.000
    W31      W        0.05303    0.86447    0.94942    1.000
    W32      W        0.92419    0.97625    0.79015    1.000
    W33      W        0.12807    0.97616    0.90901    1.000
    W34      W        0.92342    0.75271    0.79039    1.000
    W35      W        0.13024    0.75306    0.90873    1.000
    Ce13     Ce       0.88972    0.35773    0.82851    1.000
    Ce14     Ce       0.83092    0.37307    0.48638    1.000
    N13      N        0.84200    0.49680    0.74530    1.000
    N14      N        0.13230    0.23340    0.03430    1.000
    C85      C        0.17400    0.17630    0.09770    1.000
    C86      C        0.76410    0.62180    0.63510    1.000
    H37      H        0.73720    0.66370    0.59730    1.000
    C87      C        0.03200    0.28900    0.92310    1.000
    C88      C        0.82980    0.50800    0.67600    1.000
    C89      C        0.78960    0.57320    0.61690    1.000
    H38      H        0.78170    0.58110    0.56840    1.000
    C90      C        0.07450    0.21690    0.98730    1.000
    C91      C        0.23850    0.20180    0.14640    1.000
    C92      C        0.83800    0.53720    0.84680    1.000
    C93      C        0.85880    0.44400    0.66320    1.000
    C94      C        0.05590    0.14520    0.99860    1.000
    H39      H        0.01550    0.13510    0.96580    1.000
    C95      C        0.77550    0.61330    0.70560    1.000
    H40      H        0.75560    0.64600    0.71560    1.000
    C96      C        0.09760    0.08660    0.05940    1.000
    H41      H        0.08490    0.03690    0.06670    1.000
    C97      C        0.81920    0.55200    0.76400    1.000
    C98      C        0.15710    0.10140    0.10850    1.000
    H42      H        0.18530    0.06160    0.14810    1.000
    O145     O        0.27780    0.15510    0.20470    1.000
    O146     O        0.24550    0.26690    0.12450    1.000
    O147     O        0.97930    0.27940    0.88190    1.000
    O148     O        0.05740    0.35060    0.92180    1.000
    O149     O        0.85080    0.45240    0.60100    1.000
    O150     O        0.88850    0.38450    0.71620    1.000
    O151     O        0.82430    0.59420    0.87190    1.000
    O152     O        0.86560    0.46830    0.88320    1.000
    O153     O        0.13410    0.74400    0.82610    1.000
    O154     O        0.10280    0.94560    0.96280    1.000
    O155     O        0.16010    0.86140    0.93110    1.000
    O156     O        0.99470    0.94840    0.90100    1.000
    O157     O        0.96800    0.06510    0.79540    1.000
    O158     O        0.10260    0.78360    0.96000    1.000
    O159     O        0.99590    0.77680    0.89940    1.000
    O160     O        0.89530    0.85830    0.78060    1.000
    O161     O        0.96370    0.93400    0.72900    1.000
    O162     O        0.95060    0.86400    0.66680    1.000
    O163     O        0.98590    0.85900    0.79800    1.000
    O164     O        0.13140    0.98500    0.82600    1.000
    O165     O        0.03400    0.66200    0.70630    1.000
    O166     O        0.07700    0.65900    0.85850    1.000
    O167     O        0.07380    0.07200    0.85470    1.000
    O168     O        0.03610    0.79500    0.76900    1.000
    W36      W        0.55303    0.36447    0.94942    1.000
    W37      W        0.42419    0.47625    0.79015    1.000
    W38      W        0.62807    0.47616    0.90901    1.000
    W39      W        0.42342    0.25271    0.79039    1.000
    W40      W        0.63024    0.25306    0.90873    1.000
    Ce15     Ce       0.38972    0.85773    0.82851    1.000
    Ce16     Ce       0.33092    0.87307    0.48638    1.000
    N15      N        0.34200    0.99680    0.74530    1.000
    N16      N        0.63230    0.73340    0.03430    1.000
    C99      C        0.67400    0.67630    0.09770    1.000
    C100     C        0.26410    0.12180    0.63510    1.000
    H43      H        0.23720    0.16370    0.59730    1.000
    C101     C        0.53200    0.78900    0.92310    1.000
    C102     C        0.32980    0.00800    0.67600    1.000
    C103     C        0.28960    0.07320    0.61690    1.000
    H44      H        0.28170    0.08110    0.56840    1.000
    C104     C        0.57450    0.71690    0.98730    1.000
    C105     C        0.73850    0.70180    0.14640    1.000
    C106     C        0.33800    0.03720    0.84680    1.000
    C107     C        0.35880    0.94400    0.66320    1.000
    C108     C        0.55590    0.64520    0.99860    1.000
    H45      H        0.51550    0.63510    0.96580    1.000
    C109     C        0.27550    0.11330    0.70560    1.000
    H46      H        0.25560    0.14600    0.71560    1.000
    C110     C        0.59760    0.58660    0.05940    1.000
    H47      H        0.58490    0.53690    0.06670    1.000
    C111     C        0.31920    0.05200    0.76400    1.000
    C112     C        0.65710    0.60140    0.10850    1.000
    H48      H        0.68530    0.56160    0.14810    1.000
    O169     O        0.77780    0.65510    0.20470    1.000
    O170     O        0.74550    0.76690    0.12450    1.000
    O171     O        0.47930    0.77940    0.88190    1.000
    O172     O        0.55740    0.85060    0.92180    1.000
    O173     O        0.35080    0.95240    0.60100    1.000
    O174     O        0.38850    0.88450    0.71620    1.000
    O175     O        0.32430    0.09420    0.87190    1.000
    O176     O        0.36560    0.96830    0.88320    1.000
    O177     O        0.63410    0.24400    0.82610    1.000
    O178     O        0.60280    0.44560    0.96280    1.000
    O179     O        0.66010    0.36140    0.93110    1.000
    O180     O        0.49470    0.44840    0.90100    1.000
    O181     O        0.46800    0.56510    0.79540    1.000
    O182     O        0.60260    0.28360    0.96000    1.000
    O183     O        0.49590    0.27680    0.89940    1.000
    O184     O        0.39530    0.35830    0.78060    1.000
    O185     O        0.46370    0.43400    0.72900    1.000
    O186     O        0.45060    0.36400    0.66680    1.000
    O187     O        0.48590    0.35900    0.79800    1.000
    O188     O        0.63140    0.48500    0.82600    1.000
    O189     O        0.53400    0.16200    0.70630    1.000
    O190     O        0.57700    0.15900    0.85850    1.000
    O191     O        0.57380    0.57200    0.85470    1.000
    O192     O        0.53610    0.29500    0.76900    1.000
    W41      W        0.00000    0.91075    0.25000    1.000
    W42      W        0.00000    0.35810    0.25000    1.000
    K1       K        0.00000    0.63610    0.25000    1.000
    O193     O        0.00000    0.46290    0.25000    1.000
    O194     O        0.00000    0.80100    0.25000    1.000
    B1       B        0.00000    0.13600    0.25000    1.000
    W43      W        0.50000    0.41075    0.25000    1.000
    W44      W        0.50000    0.85810    0.25000    1.000
    K2       K        0.50000    0.13610    0.25000    1.000
    O195     O        0.50000    0.96290    0.25000    1.000
    O196     O        0.50000    0.30100    0.25000    1.000
    B2       B        0.50000    0.63600    0.25000    1.000
    W45      W        0.00000    0.08925    0.75000    1.000
    W46      W        0.00000    0.64190    0.75000    1.000
    K3       K        0.00000    0.36390    0.75000    1.000
    O197     O        0.00000    0.53710    0.75000    1.000
    O198     O        0.00000    0.19900    0.75000    1.000
    B3       B        0.00000    0.86400    0.75000    1.000
    W47      W        0.50000    0.58925    0.75000    1.000
    W48      W        0.50000    0.14190    0.75000    1.000
    K4       K        0.50000    0.86390    0.75000    1.000
    O199     O        0.50000    0.03710    0.75000    1.000
    O200     O        0.50000    0.69900    0.75000    1.000
    B4       B        0.50000    0.36400    0.75000    1.000
