# CIF file generated by openbabel 3.1.0, see https://openbabel.org
data_I
_chemical_name_common 'image0'
_cell_length_a 11.7079
_cell_length_b 12.8554
_cell_length_c 16.8605
_cell_angle_alpha 90
_cell_angle_beta 100.666
_cell_angle_gamma 90
_space_group_name_H-M_alt 'P 1'
_space_group_name_Hall 'P 1'
loop_
    _symmetry_equiv_pos_as_xyz
    x,y,z
loop_
    _atom_site_label
    _atom_site_type_symbol
    _atom_site_fract_x
    _atom_site_fract_y
    _atom_site_fract_z
    _atom_site_occupancy
    Mn1      Mn       0.74628    0.76846    0.22839    1.000
    N1       N        0.61074    0.89564    0.19832    1.000
    N2       N        0.39155    0.16138    0.24729    1.000
    N3       N        0.87200    0.88691    0.20105    1.000
    N4       N        0.75660    0.82617    0.35578    1.000
    N5       N        0.70787    0.78840    0.60278    1.000
    N6       N        0.11265    0.15605    0.22827    1.000
    N7       N        0.99200    0.01770    0.15650    1.000
    N8       N        0.55914    0.07753    0.20807    1.000
    N9       N        0.67251    0.87664    0.47185    1.000
    C1       C        0.58035    0.97855    0.20509    1.000
    C2       C        0.46705    0.11580    0.23033    1.000
    C3       C        0.92101    0.95737    0.18454    1.000
    C4       C        0.71835    0.84555    0.41181    1.000
    C5       C        0.69296    0.82596    0.54026    1.000
    C6       C        0.04553    0.09709    0.19934    1.000
    N10      N        0.95510    0.04970    0.15950    1.000
    Mn2      Mn       0.25372    0.26846    0.27162    1.000
    N11      N        0.38926    0.39564    0.30168    1.000
    N12      N        0.60845    0.66138    0.25271    1.000
    N13      N        0.12800    0.38691    0.29895    1.000
    N14      N        0.24340    0.32617    0.14422    1.000
    N15      N        0.29213    0.28840    0.89722    1.000
    N16      N        0.88735    0.65605    0.27173    1.000
    N17      N        0.00800    0.51770    0.34350    1.000
    N18      N        0.44086    0.57753    0.29193    1.000
    N19      N        0.32749    0.37664    0.02815    1.000
    C7       C        0.41965    0.47855    0.29491    1.000
    C8       C        0.53295    0.61580    0.26967    1.000
    C9       C        0.07899    0.45737    0.31546    1.000
    C10      C        0.28165    0.34555    0.08819    1.000
    C11      C        0.30704    0.32596    0.95974    1.000
    C12      C        0.95447    0.59709    0.30066    1.000
    N20      N        0.04490    0.54970    0.34050    1.000
    Mn3      Mn       0.25372    0.23154    0.77162    1.000
    N21      N        0.38926    0.10436    0.80168    1.000
    N22      N        0.60845    0.83862    0.75271    1.000
    N23      N        0.12800    0.11309    0.79895    1.000
    N24      N        0.24340    0.17383    0.64422    1.000
    N25      N        0.29213    0.21160    0.39722    1.000
    N26      N        0.88735    0.84395    0.77173    1.000
    N27      N        0.00800    0.98230    0.84350    1.000
    N28      N        0.44086    0.92247    0.79193    1.000
    N29      N        0.32749    0.12336    0.52815    1.000
    C13      C        0.41965    0.02145    0.79491    1.000
    C14      C        0.53295    0.88420    0.76967    1.000
    C15      C        0.07899    0.04263    0.81546    1.000
    C16      C        0.28165    0.15445    0.58819    1.000
    C17      C        0.30704    0.17404    0.45974    1.000
    C18      C        0.95447    0.90291    0.80066    1.000
    N30      N        0.04490    0.95030    0.84050    1.000
    Mn4      Mn       0.74628    0.73154    0.72839    1.000
    N31      N        0.61074    0.60436    0.69832    1.000
    N32      N        0.39155    0.33862    0.74729    1.000
    N33      N        0.87200    0.61309    0.70105    1.000
    N34      N        0.75660    0.67383    0.85578    1.000
    N35      N        0.70787    0.71160    0.10278    1.000
    N36      N        0.11265    0.34395    0.72827    1.000
    N37      N        0.99200    0.48230    0.65650    1.000
    N38      N        0.55914    0.42247    0.70807    1.000
    N39      N        0.67251    0.62336    0.97185    1.000
    C19      C        0.58035    0.52145    0.70509    1.000
    C20      C        0.46705    0.38420    0.73033    1.000
    C21      C        0.92101    0.54263    0.68454    1.000
    C22      C        0.71835    0.65445    0.91181    1.000
    C23      C        0.69296    0.67404    0.04026    1.000
    C24      C        0.04553    0.40291    0.69934    1.000
    N40      N        0.95510    0.45030    0.65950    1.000
