# CIF file generated by openbabel 3.1.0, see https://openbabel.org
data_I
_chemical_name_common 'image0'
_cell_length_a 33.4968
_cell_length_b 33.4968
_cell_length_c 8.5164
_cell_angle_alpha 90
_cell_angle_beta 90
_cell_angle_gamma 120
_space_group_name_H-M_alt 'P 1'
_space_group_name_Hall 'P 1'
loop_
    _symmetry_equiv_pos_as_xyz
    x,y,z
loop_
    _atom_site_label
    _atom_site_type_symbol
    _atom_site_fract_x
    _atom_site_fract_y
    _atom_site_fract_z
    _atom_site_occupancy
    Ag1      Ag       0.14725    0.32307    0.50308    1.000
    O1       O        0.33676    0.33306    0.78490    1.000
    N1       N        0.20678    0.34446    0.65880    1.000
    N2       N        0.28152    0.19960    0.62170    1.000
    C1       C        0.21791    0.37884    0.76250    1.000
    H1       H        0.20070    0.39430    0.76190    1.000
    C2       C        0.25350    0.39251    0.87000    1.000
    H2       H        0.26020    0.41660    0.94250    1.000
    C3       C        0.27891    0.37043    0.86970    1.000
    H3       H        0.30410    0.37970    0.93970    1.000
    C4       C        0.26700    0.33432    0.76490    1.000
    C5       C        0.23083    0.32234    0.66310    1.000
    H4       H        0.22260    0.29740    0.59290    1.000
    C6       C        0.29514    0.31102    0.76020    1.000
    C7       C        0.27219    0.26080    0.72830    1.000
    C8       C        0.22840    0.22990    0.77750    1.000
    H5       H        0.21000    0.24010    0.82950    1.000
    C9       C        0.21140    0.18330    0.74990    1.000
    H6       H        0.18150    0.16120    0.78480    1.000
    C10      C        0.23830    0.16965    0.67200    1.000
    H7       H        0.22600    0.13770    0.65230    1.000
    C11      C        0.29763    0.24404    0.65090    1.000
    H8       H        0.32800    0.26550    0.61740    1.000
    Ag2      Ag       0.81392    0.65640    0.83641    1.000
    O2       O        0.00343    0.66639    0.11823    1.000
    N3       N        0.87345    0.67779    0.99213    1.000
    N4       N        0.94819    0.53293    0.95503    1.000
    C12      C        0.88458    0.71217    0.09583    1.000
    H9       H        0.86737    0.72763    0.09523    1.000
    C13      C        0.92017    0.72584    0.20333    1.000
    H10      H        0.92687    0.74993    0.27583    1.000
    C14      C        0.94558    0.70376    0.20303    1.000
    H11      H        0.97077    0.71303    0.27303    1.000
    C15      C        0.93367    0.66765    0.09823    1.000
    C16      C        0.89750    0.65567    0.99643    1.000
    H12      H        0.88927    0.63073    0.92623    1.000
    C17      C        0.96181    0.64435    0.09353    1.000
    C18      C        0.93886    0.59413    0.06163    1.000
    C19      C        0.89507    0.56323    0.11083    1.000
    H13      H        0.87667    0.57343    0.16283    1.000
    C20      C        0.87807    0.51663    0.08323    1.000
    H14      H        0.84817    0.49453    0.11813    1.000
    C21      C        0.90497    0.50298    0.00533    1.000
    H15      H        0.89267    0.47103    0.98563    1.000
    C22      C        0.96430    0.57737    0.98423    1.000
    H16      H        0.99467    0.59883    0.95073    1.000
    Ag3      Ag       0.48059    0.98973    0.16975    1.000
    O3       O        0.67009    0.99973    0.45157    1.000
    N5       N        0.54011    0.01113    0.32547    1.000
    N6       N        0.61485    0.86627    0.28837    1.000
    C23      C        0.55124    0.04551    0.42917    1.000
    H17      H        0.53403    0.06097    0.42857    1.000
    C24      C        0.58683    0.05918    0.53667    1.000
    H18      H        0.59353    0.08327    0.60917    1.000
    C25      C        0.61224    0.03710    0.53637    1.000
    H19      H        0.63743    0.04637    0.60637    1.000
    C26      C        0.60033    0.00099    0.43157    1.000
    C27      C        0.56416    0.98901    0.32977    1.000
    H20      H        0.55593    0.96407    0.25957    1.000
    C28      C        0.62847    0.97769    0.42687    1.000
    C29      C        0.60552    0.92747    0.39497    1.000
    C30      C        0.56173    0.89657    0.44417    1.000
    H21      H        0.54333    0.90677    0.49617    1.000
    C31      C        0.54473    0.84997    0.41657    1.000
    H22      H        0.51483    0.82787    0.45147    1.000
    C32      C        0.57163    0.83632    0.33867    1.000
    H23      H        0.55933    0.80437    0.31897    1.000
    C33      C        0.63096    0.91071    0.31757    1.000
    H24      H        0.66133    0.93217    0.28407    1.000
    Ag4      Ag       0.67693    0.82419    0.50308    1.000
    O4       O        0.66694    0.00370    0.78490    1.000
    N7       N        0.65554    0.86232    0.65880    1.000
    N8       N        0.80040    0.08192    0.62170    1.000
    C34      C        0.62116    0.83907    0.76250    1.000
    H25      H        0.60570    0.80640    0.76190    1.000
    C35      C        0.60749    0.86099    0.87000    1.000
    H26      H        0.58340    0.84360    0.94250    1.000
    C36      C        0.62957    0.90848    0.86970    1.000
    H27      H        0.62030    0.92440    0.93970    1.000
    C37      C        0.66568    0.93268    0.76490    1.000
    C38      C        0.67766    0.90849    0.66310    1.000
    H28      H        0.70260    0.92520    0.59290    1.000
    C39      C        0.68898    0.98412    0.76020    1.000
    C40      C        0.73920    0.01139    0.72830    1.000
    C41      C        0.77010    0.99850    0.77750    1.000
    H29      H        0.75990    0.96990    0.82950    1.000
    C42      C        0.81670    0.02810    0.74990    1.000
    H30      H        0.83880    0.02030    0.78480    1.000
    C43      C        0.83035    0.06865    0.67200    1.000
    H31      H        0.86230    0.08830    0.65230    1.000
    C44      C        0.75596    0.05359    0.65090    1.000
    H32      H        0.73450    0.06250    0.61740    1.000
    Ag5      Ag       0.34360    0.15752    0.83641    1.000
    O5       O        0.33361    0.33703    0.11823    1.000
    N9       N        0.32221    0.19565    0.99213    1.000
    N10      N        0.46707    0.41525    0.95503    1.000
    C45      C        0.28783    0.17240    0.09583    1.000
    H33      H        0.27237    0.13973    0.09523    1.000
    C46      C        0.27416    0.19432    0.20333    1.000
    H34      H        0.25007    0.17693    0.27583    1.000
    C47      C        0.29624    0.24181    0.20303    1.000
    H35      H        0.28697    0.25773    0.27303    1.000
    C48      C        0.33235    0.26601    0.09823    1.000
    C49      C        0.34433    0.24182    0.99643    1.000
    H36      H        0.36927    0.25853    0.92623    1.000
    C50      C        0.35565    0.31745    0.09353    1.000
    C51      C        0.40587    0.34472    0.06163    1.000
    C52      C        0.43677    0.33183    0.11083    1.000
    H37      H        0.42657    0.30323    0.16283    1.000
    C53      C        0.48337    0.36143    0.08323    1.000
    H38      H        0.50547    0.35363    0.11813    1.000
    C54      C        0.49702    0.40198    0.00533    1.000
    H39      H        0.52897    0.42163    0.98563    1.000
    C55      C        0.42263    0.38692    0.98423    1.000
    H40      H        0.40117    0.39583    0.95073    1.000
    Ag6      Ag       0.01027    0.49085    0.16975    1.000
    O6       O        0.00027    0.67037    0.45157    1.000
    N11      N        0.98887    0.52899    0.32547    1.000
    N12      N        0.13373    0.74859    0.28837    1.000
    C56      C        0.95449    0.50574    0.42917    1.000
    H41      H        0.93903    0.47307    0.42857    1.000
    C57      C        0.94082    0.52766    0.53667    1.000
    H42      H        0.91673    0.51027    0.60917    1.000
    C58      C        0.96290    0.57515    0.53637    1.000
    H43      H        0.95363    0.59107    0.60637    1.000
    C59      C        0.99901    0.59935    0.43157    1.000
    C60      C        0.01099    0.57516    0.32977    1.000
    H44      H        0.03593    0.59187    0.25957    1.000
    C61      C        0.02231    0.65079    0.42687    1.000
    C62      C        0.07253    0.67806    0.39497    1.000
    C63      C        0.10343    0.66517    0.44417    1.000
    H45      H        0.09323    0.63657    0.49617    1.000
    C64      C        0.15003    0.69477    0.41657    1.000
    H46      H        0.17213    0.68697    0.45147    1.000
    C65      C        0.16368    0.73532    0.33867    1.000
    H47      H        0.19563    0.75497    0.31897    1.000
    C66      C        0.08929    0.72026    0.31757    1.000
    H48      H        0.06783    0.72917    0.28407    1.000
    Ag7      Ag       0.17581    0.85275    0.50308    1.000
    O7       O        0.99630    0.66324    0.78490    1.000
    N13      N        0.13768    0.79322    0.65880    1.000
    N14      N        0.91808    0.71848    0.62170    1.000
    C67      C        0.16093    0.78209    0.76250    1.000
    H49      H        0.19360    0.79930    0.76190    1.000
    C68      C        0.13901    0.74650    0.87000    1.000
    H50      H        0.15640    0.73980    0.94250    1.000
    C69      C        0.09152    0.72109    0.86970    1.000
    H51      H        0.07560    0.69590    0.93970    1.000
    C70      C        0.06732    0.73300    0.76490    1.000
    C71      C        0.09151    0.76917    0.66310    1.000
    H52      H        0.07480    0.77740    0.59290    1.000
    C72      C        0.01588    0.70486    0.76020    1.000
    C73      C        0.98861    0.72781    0.72830    1.000
    C74      C        0.00150    0.77160    0.77750    1.000
    H53      H        0.03010    0.79000    0.82950    1.000
    C75      C        0.97190    0.78860    0.74990    1.000
    H54      H        0.97970    0.81850    0.78480    1.000
    C76      C        0.93135    0.76170    0.67200    1.000
    H55      H        0.91170    0.77400    0.65230    1.000
    C77      C        0.94641    0.70237    0.65090    1.000
    H56      H        0.93750    0.67200    0.61740    1.000
    Ag8      Ag       0.84248    0.18608    0.83641    1.000
    O8       O        0.66297    0.99657    0.11823    1.000
    N15      N        0.80435    0.12655    0.99213    1.000
    N16      N        0.58475    0.05181    0.95503    1.000
    C78      C        0.82760    0.11542    0.09583    1.000
    H57      H        0.86027    0.13263    0.09523    1.000
    C79      C        0.80568    0.07983    0.20333    1.000
    H58      H        0.82307    0.07313    0.27583    1.000
    C80      C        0.75819    0.05442    0.20303    1.000
    H59      H        0.74227    0.02923    0.27303    1.000
    C81      C        0.73399    0.06633    0.09823    1.000
    C82      C        0.75818    0.10250    0.99643    1.000
    H60      H        0.74147    0.11073    0.92623    1.000
    C83      C        0.68255    0.03819    0.09353    1.000
    C84      C        0.65528    0.06114    0.06163    1.000
    C85      C        0.66817    0.10493    0.11083    1.000
    H61      H        0.69677    0.12333    0.16283    1.000
    C86      C        0.63857    0.12193    0.08323    1.000
    H62      H        0.64637    0.15183    0.11813    1.000
    C87      C        0.59802    0.09503    0.00533    1.000
    H63      H        0.57837    0.10733    0.98563    1.000
    C88      C        0.61308    0.03570    0.98423    1.000
    H64      H        0.60417    0.00533    0.95073    1.000
    Ag9      Ag       0.50915    0.51941    0.16975    1.000
    O9       O        0.32963    0.32991    0.45157    1.000
    N17      N        0.47101    0.45989    0.32547    1.000
    N18      N        0.25141    0.38515    0.28837    1.000
    C89      C        0.49426    0.44876    0.42917    1.000
    H65      H        0.52693    0.46597    0.42857    1.000
    C90      C        0.47234    0.41317    0.53667    1.000
    H66      H        0.48973    0.40647    0.60917    1.000
    C91      C        0.42485    0.38776    0.53637    1.000
    H67      H        0.40893    0.36257    0.60637    1.000
    C92      C        0.40065    0.39967    0.43157    1.000
    C93      C        0.42484    0.43584    0.32977    1.000
    H68      H        0.40813    0.44407    0.25957    1.000
    C94      C        0.34921    0.37153    0.42687    1.000
    C95      C        0.32194    0.39448    0.39497    1.000
    C96      C        0.33483    0.43827    0.44417    1.000
    H69      H        0.36343    0.45667    0.49617    1.000
    C97      C        0.30523    0.45527    0.41657    1.000
    H70      H        0.31303    0.48517    0.45147    1.000
    C98      C        0.26468    0.42837    0.33867    1.000
    H71      H        0.24503    0.44067    0.31897    1.000
    C99      C        0.27974    0.36904    0.31757    1.000
    H72      H        0.27083    0.33867    0.28407    1.000
    Ag10     Ag       0.85274    0.67693    0.49692    1.000
    O10      O        0.66324    0.66694    0.21510    1.000
    N19      N        0.79322    0.65554    0.34120    1.000
    N20      N        0.71848    0.80040    0.37830    1.000
    C100     C        0.78209    0.62116    0.23750    1.000
    H73      H        0.79930    0.60570    0.23810    1.000
    C101     C        0.74650    0.60749    0.13000    1.000
    H74      H        0.73980    0.58340    0.05750    1.000
    C102     C        0.72109    0.62957    0.13030    1.000
    H75      H        0.69590    0.62030    0.06030    1.000
    C103     C        0.73300    0.66568    0.23510    1.000
    C104     C        0.76917    0.67766    0.33690    1.000
    H76      H        0.77740    0.70260    0.40710    1.000
    C105     C        0.70486    0.68898    0.23980    1.000
    C106     C        0.72781    0.73920    0.27170    1.000
    C107     C        0.77160    0.77010    0.22250    1.000
    H77      H        0.79000    0.75990    0.17050    1.000
    C108     C        0.78860    0.81670    0.25010    1.000
    H78      H        0.81850    0.83880    0.21520    1.000
    C109     C        0.76170    0.83035    0.32800    1.000
    H79      H        0.77400    0.86230    0.34770    1.000
    C110     C        0.70237    0.75596    0.34910    1.000
    H80      H        0.67200    0.73450    0.38260    1.000
    Ag11     Ag       0.51941    0.01027    0.83025    1.000
    O11      O        0.32991    0.00027    0.54843    1.000
    N21      N        0.45989    0.98887    0.67453    1.000
    N22      N        0.38515    0.13373    0.71163    1.000
    C111     C        0.44876    0.95449    0.57083    1.000
    H81      H        0.46597    0.93903    0.57143    1.000
    C112     C        0.41317    0.94082    0.46333    1.000
    H82      H        0.40647    0.91673    0.39083    1.000
    C113     C        0.38776    0.96290    0.46363    1.000
    H83      H        0.36257    0.95363    0.39363    1.000
    C114     C        0.39967    0.99901    0.56843    1.000
    C115     C        0.43584    0.01099    0.67023    1.000
    H84      H        0.44407    0.03593    0.74043    1.000
    C116     C        0.37153    0.02231    0.57313    1.000
    C117     C        0.39448    0.07253    0.60503    1.000
    C118     C        0.43827    0.10343    0.55583    1.000
    H85      H        0.45667    0.09323    0.50383    1.000
    C119     C        0.45527    0.15003    0.58343    1.000
    H86      H        0.48517    0.17213    0.54853    1.000
    C120     C        0.42837    0.16368    0.66133    1.000
    H87      H        0.44067    0.19563    0.68103    1.000
    C121     C        0.36904    0.08929    0.68243    1.000
    H88      H        0.33867    0.06783    0.71593    1.000
    Ag12     Ag       0.18608    0.34360    0.16359    1.000
    O12      O        0.99657    0.33361    0.88177    1.000
    N23      N        0.12655    0.32221    0.00787    1.000
    N24      N        0.05181    0.46707    0.04497    1.000
    C122     C        0.11542    0.28783    0.90417    1.000
    H89      H        0.13263    0.27237    0.90477    1.000
    C123     C        0.07983    0.27416    0.79667    1.000
    H90      H        0.07313    0.25007    0.72417    1.000
    C124     C        0.05442    0.29624    0.79697    1.000
    H91      H        0.02923    0.28697    0.72697    1.000
    C125     C        0.06633    0.33235    0.90177    1.000
    C126     C        0.10250    0.34433    0.00357    1.000
    H92      H        0.11073    0.36927    0.07377    1.000
    C127     C        0.03819    0.35565    0.90647    1.000
    C128     C        0.06114    0.40587    0.93837    1.000
    C129     C        0.10493    0.43677    0.88917    1.000
    H93      H        0.12333    0.42657    0.83717    1.000
    C130     C        0.12193    0.48337    0.91677    1.000
    H94      H        0.15183    0.50547    0.88187    1.000
    C131     C        0.09503    0.49702    0.99467    1.000
    H95      H        0.10733    0.52897    0.01437    1.000
    C132     C        0.03570    0.42263    0.01577    1.000
    H96      H        0.00533    0.40117    0.04927    1.000
    Ag13     Ag       0.32307    0.17581    0.49692    1.000
    O13      O        0.33306    0.99630    0.21510    1.000
    N25      N        0.34446    0.13768    0.34120    1.000
    N26      N        0.19960    0.91808    0.37830    1.000
    C133     C        0.37884    0.16093    0.23750    1.000
    H97      H        0.39430    0.19360    0.23810    1.000
    C134     C        0.39251    0.13901    0.13000    1.000
    H98      H        0.41660    0.15640    0.05750    1.000
    C135     C        0.37043    0.09152    0.13030    1.000
    H99      H        0.37970    0.07560    0.06030    1.000
    C136     C        0.33432    0.06732    0.23510    1.000
    C137     C        0.32234    0.09151    0.33690    1.000
    H100     H        0.29740    0.07480    0.40710    1.000
    C138     C        0.31102    0.01588    0.23980    1.000
    C139     C        0.26080    0.98861    0.27170    1.000
    C140     C        0.22990    0.00150    0.22250    1.000
    H101     H        0.24010    0.03010    0.17050    1.000
    C141     C        0.18330    0.97190    0.25010    1.000
    H102     H        0.16120    0.97970    0.21520    1.000
    C142     C        0.16965    0.93135    0.32800    1.000
    H103     H        0.13770    0.91170    0.34770    1.000
    C143     C        0.24404    0.94641    0.34910    1.000
    H104     H        0.26550    0.93750    0.38260    1.000
    Ag14     Ag       0.98973    0.50915    0.83025    1.000
    O14      O        0.99973    0.32963    0.54843    1.000
    N27      N        0.01113    0.47101    0.67453    1.000
    N28      N        0.86627    0.25141    0.71163    1.000
    C144     C        0.04551    0.49426    0.57083    1.000
    H105     H        0.06097    0.52693    0.57143    1.000
    C145     C        0.05918    0.47234    0.46333    1.000
    H106     H        0.08327    0.48973    0.39083    1.000
    C146     C        0.03710    0.42485    0.46363    1.000
    H107     H        0.04637    0.40893    0.39363    1.000
    C147     C        0.00099    0.40065    0.56843    1.000
    C148     C        0.98901    0.42484    0.67023    1.000
    H108     H        0.96407    0.40813    0.74043    1.000
    C149     C        0.97769    0.34921    0.57313    1.000
    C150     C        0.92747    0.32194    0.60503    1.000
    C151     C        0.89657    0.33483    0.55583    1.000
    H109     H        0.90677    0.36343    0.50383    1.000
    C152     C        0.84997    0.30523    0.58343    1.000
    H110     H        0.82787    0.31303    0.54853    1.000
    C153     C        0.83632    0.26468    0.66133    1.000
    H111     H        0.80437    0.24503    0.68103    1.000
    C154     C        0.91071    0.27974    0.68243    1.000
    H112     H        0.93217    0.27083    0.71593    1.000
    Ag15     Ag       0.65640    0.84248    0.16359    1.000
    O15      O        0.66639    0.66297    0.88177    1.000
    N29      N        0.67779    0.80435    0.00787    1.000
    N30      N        0.53293    0.58475    0.04497    1.000
    C155     C        0.71217    0.82760    0.90417    1.000
    H113     H        0.72763    0.86027    0.90477    1.000
    C156     C        0.72584    0.80568    0.79667    1.000
    H114     H        0.74993    0.82307    0.72417    1.000
    C157     C        0.70376    0.75819    0.79697    1.000
    H115     H        0.71303    0.74227    0.72697    1.000
    C158     C        0.66765    0.73399    0.90177    1.000
    C159     C        0.65567    0.75818    0.00357    1.000
    H116     H        0.63073    0.74147    0.07377    1.000
    C160     C        0.64435    0.68255    0.90647    1.000
    C161     C        0.59413    0.65528    0.93837    1.000
    C162     C        0.56323    0.66817    0.88917    1.000
    H117     H        0.57343    0.69677    0.83717    1.000
    C163     C        0.51663    0.63857    0.91677    1.000
    H118     H        0.49453    0.64637    0.88187    1.000
    C164     C        0.50298    0.59802    0.99467    1.000
    H119     H        0.47103    0.57837    0.01437    1.000
    C165     C        0.57737    0.61308    0.01577    1.000
    H120     H        0.59883    0.60417    0.04927    1.000
    Ag16     Ag       0.82419    0.14725    0.49692    1.000
    O16      O        0.00370    0.33676    0.21510    1.000
    N31      N        0.86232    0.20678    0.34120    1.000
    N32      N        0.08192    0.28152    0.37830    1.000
    C166     C        0.83907    0.21791    0.23750    1.000
    H121     H        0.80640    0.20070    0.23810    1.000
    C167     C        0.86099    0.25350    0.13000    1.000
    H122     H        0.84360    0.26020    0.05750    1.000
    C168     C        0.90848    0.27891    0.13030    1.000
    H123     H        0.92440    0.30410    0.06030    1.000
    C169     C        0.93268    0.26700    0.23510    1.000
    C170     C        0.90849    0.23083    0.33690    1.000
    H124     H        0.92520    0.22260    0.40710    1.000
    C171     C        0.98412    0.29514    0.23980    1.000
    C172     C        0.01139    0.27219    0.27170    1.000
    C173     C        0.99850    0.22840    0.22250    1.000
    H125     H        0.96990    0.21000    0.17050    1.000
    C174     C        0.02810    0.21140    0.25010    1.000
    H126     H        0.02030    0.18150    0.21520    1.000
    C175     C        0.06865    0.23830    0.32800    1.000
    H127     H        0.08830    0.22600    0.34770    1.000
    C176     C        0.05359    0.29763    0.34910    1.000
    H128     H        0.06250    0.32800    0.38260    1.000
    Ag17     Ag       0.49085    0.48059    0.83025    1.000
    O17      O        0.67037    0.67009    0.54843    1.000
    N33      N        0.52899    0.54011    0.67453    1.000
    N34      N        0.74859    0.61485    0.71163    1.000
    C177     C        0.50574    0.55124    0.57083    1.000
    H129     H        0.47307    0.53403    0.57143    1.000
    C178     C        0.52766    0.58683    0.46333    1.000
    H130     H        0.51027    0.59353    0.39083    1.000
    C179     C        0.57515    0.61224    0.46363    1.000
    H131     H        0.59107    0.63743    0.39363    1.000
    C180     C        0.59935    0.60033    0.56843    1.000
    C181     C        0.57516    0.56416    0.67023    1.000
    H132     H        0.59187    0.55593    0.74043    1.000
    C182     C        0.65079    0.62847    0.57313    1.000
    C183     C        0.67806    0.60552    0.60503    1.000
    C184     C        0.66517    0.56173    0.55583    1.000
    H133     H        0.63657    0.54333    0.50383    1.000
    C185     C        0.69477    0.54473    0.58343    1.000
    H134     H        0.68697    0.51483    0.54853    1.000
    C186     C        0.73532    0.57163    0.66133    1.000
    H135     H        0.75497    0.55933    0.68103    1.000
    C187     C        0.72026    0.63096    0.68243    1.000
    H136     H        0.72917    0.66133    0.71593    1.000
    Ag18     Ag       0.15752    0.81392    0.16359    1.000
    O18      O        0.33703    0.00343    0.88177    1.000
    N35      N        0.19565    0.87345    0.00787    1.000
    N36      N        0.41525    0.94819    0.04497    1.000
    C188     C        0.17240    0.88458    0.90417    1.000
    H137     H        0.13973    0.86737    0.90477    1.000
    C189     C        0.19432    0.92017    0.79667    1.000
    H138     H        0.17693    0.92687    0.72417    1.000
    C190     C        0.24181    0.94558    0.79697    1.000
    H139     H        0.25773    0.97077    0.72697    1.000
    C191     C        0.26601    0.93367    0.90177    1.000
    C192     C        0.24182    0.89750    0.00357    1.000
    H140     H        0.25853    0.88927    0.07377    1.000
    C193     C        0.31745    0.96181    0.90647    1.000
    C194     C        0.34472    0.93886    0.93837    1.000
    C195     C        0.33183    0.89507    0.88917    1.000
    H141     H        0.30323    0.87667    0.83717    1.000
    C196     C        0.36143    0.87807    0.91677    1.000
    H142     H        0.35363    0.84817    0.88187    1.000
    C197     C        0.40198    0.90497    0.99467    1.000
    H143     H        0.42163    0.89267    0.01437    1.000
    C198     C        0.38692    0.96430    0.01577    1.000
    H144     H        0.39583    0.99467    0.04927    1.000
