# CIF file generated by openbabel 3.1.0, see https://openbabel.org
data_I
_chemical_name_common 'ELIKEQ_clean'
_cell_length_a 9.37
_cell_length_b 9.902
_cell_length_c 11.429
_cell_angle_alpha 93.942
_cell_angle_beta 98.075
_cell_angle_gamma 110.692
_space_group_name_H-M_alt 'P 1'
_space_group_name_Hall 'P 1'
loop_
    _symmetry_equiv_pos_as_xyz
    x,y,z
loop_
    _atom_site_label
    _atom_site_type_symbol
    _atom_site_fract_x
    _atom_site_fract_y
    _atom_site_fract_z
    _atom_site_occupancy
    Nd1      Nd       0.71605    0.45412    0.01559    1.000
    Nd2      Nd       0.28395    0.54588    0.98441    1.000
    H1       H        0.06260    0.60350    0.42460    1.000
    H2       H        0.08150    0.13690    0.83500    1.000
    H3       H        0.82660    0.90220    0.56950    1.000
    H4       H        0.73450    0.77670    0.38250    1.000
    H5       H        0.80380    0.71430    0.77920    1.000
    H6       H        0.68180    0.00470    0.96220    1.000
    H7       H        0.15350    0.72700    0.61550    1.000
    H8       H        0.93740    0.39650    0.57540    1.000
    H9       H        0.91850    0.86310    0.16500    1.000
    H10      H        0.17340    0.09780    0.43050    1.000
    H11      H        0.26550    0.22330    0.61750    1.000
    H12      H        0.19620    0.28570    0.22080    1.000
    H13      H        0.31820    0.99530    0.03780    1.000
    H14      H        0.84650    0.27300    0.38450    1.000
    C1       C        0.01340    0.66180    0.45420    1.000
    C2       C        0.99610    0.82150    0.61140    1.000
    C3       C        0.99050    0.06340    0.84410    1.000
    C4       C        0.95380    0.92280    0.79230    1.000
    C5       C        0.92560    0.24540    0.96780    1.000
    C6       C        0.87200    0.84000    0.54080    1.000
    C7       C        0.88870    0.09360    0.91060    1.000
    C8       C        0.81840    0.76560    0.42910    1.000
    C9       C        0.88510    0.67330    0.38220    1.000
    C10      C        0.82310    0.80960    0.81030    1.000
    C11      C        0.75270    0.98330    0.92240    1.000
    C12      C        0.72190    0.84090    0.87520    1.000
    C13      C        0.57880    0.72360    0.89700    1.000
    C14      C        0.06840    0.73580    0.56860    1.000
    C15      C        0.82340    0.58900    0.26280    1.000
    C16      C        0.98660    0.33820    0.54580    1.000
    C17      C        0.00390    0.17850    0.38860    1.000
    C18      C        0.00950    0.93660    0.15590    1.000
    C19      C        0.04620    0.07720    0.20770    1.000
    C20      C        0.07440    0.75460    0.03220    1.000
    C21      C        0.12800    0.16000    0.45920    1.000
    C22      C        0.11130    0.90640    0.08940    1.000
    C23      C        0.18160    0.23440    0.57090    1.000
    C24      C        0.11490    0.32670    0.61780    1.000
    C25      C        0.17690    0.19040    0.18970    1.000
    C26      C        0.24730    0.01670    0.07760    1.000
    C27      C        0.27810    0.15910    0.12480    1.000
    C28      C        0.42120    0.27640    0.10300    1.000
    C29      C        0.93160    0.26420    0.43140    1.000
    C30      C        0.17660    0.41100    0.73720    1.000
    O1       O        0.71310    0.60920    0.19640    1.000
    O2       O        0.05570    0.89380    0.72590    1.000
    O3       O        0.82100    0.27020    0.01290    1.000
    O4       O        0.05630    0.33830    0.96730    1.000
    O5       O        0.87800    0.49780    0.22520    1.000
    O6       O        0.58530    0.60450    0.92560    1.000
    O7       O        0.45450    0.74590    0.88770    1.000
    O8       O        0.28690    0.39080    0.80360    1.000
    O9       O        0.94430    0.10620    0.27410    1.000
    O10      O        0.17900    0.72980    0.98710    1.000
    O11      O        0.94370    0.66170    0.03270    1.000
    O12      O        0.12200    0.50220    0.77480    1.000
    O13      O        0.41470    0.39550    0.07440    1.000
    O14      O        0.54550    0.25410    0.11230    1.000
