# CIF file generated by openbabel 3.1.0, see https://openbabel.org
data_I
_chemical_name_common 'image0'
_cell_length_a 13.391
_cell_length_b 21.45
_cell_length_c 10.1758
_cell_angle_alpha 90
_cell_angle_beta 94.96
_cell_angle_gamma 90
_space_group_name_H-M_alt 'P 1'
_space_group_name_Hall 'P 1'
loop_
    _symmetry_equiv_pos_as_xyz
    x,y,z
loop_
    _atom_site_label
    _atom_site_type_symbol
    _atom_site_fract_x
    _atom_site_fract_y
    _atom_site_fract_z
    _atom_site_occupancy
    Cd1      Cd       0.51544    0.57311    0.41908    1.000
    O1       O        0.00476    0.86610    0.37210    1.000
    C1       C        0.89708    0.78022    0.24692    1.000
    C2       C        0.85720    0.75717    0.12730    1.000
    H1       H        0.88250    0.77000    0.04720    1.000
    C3       C        0.77890    0.71456    0.12690    1.000
    H2       H        0.75130    0.69730    0.04580    1.000
    C4       C        0.74011    0.69683    0.24543    1.000
    C5       C        0.78589    0.71939    0.36329    1.000
    H3       H        0.76340    0.70520    0.44410    1.000
    C6       C        0.86383    0.76220    0.36615    1.000
    H4       H        0.89330    0.77850    0.44720    1.000
    C7       C        0.65248    0.65268    0.24672    1.000
    O2       O        0.62047    0.62972    0.13791    1.000
    O3       O        0.61998    0.64349    0.35806    1.000
    O4       O        0.00460    0.28230    0.12821    1.000
    C8       C        0.10488    0.36601    0.26828    1.000
    C9       C        0.13827    0.38859    0.39232    1.000
    H5       H        0.10350    0.37850    0.46700    1.000
    C10      C        0.22318    0.42619    0.40576    1.000
    H6       H        0.24710    0.44170    0.49010    1.000
    C11      C        0.27311    0.44101    0.29481    1.000
    C12      C        0.23775    0.41856    0.17070    1.000
    H7       H        0.27160    0.42910    0.09550    1.000
    C13      C        0.15373    0.38102    0.15694    1.000
    H8       H        0.12950    0.36560    0.07260    1.000
    C14      C        0.36310    0.48286    0.30594    1.000
    O5       O        0.40953    0.49073    0.42053    1.000
    O6       O        0.38587    0.50914    0.20448    1.000
    C15      C        0.88320    0.73420    0.14800    1.000
    H9       H        0.92830    0.73100    0.08130    1.000
    C16      C        0.80210    0.69350    0.14970    1.000
    H10      H        0.79080    0.66310    0.08210    1.000
    C17      C        0.75030    0.74320    0.34260    1.000
    H11      H        0.70300    0.74670    0.40660    1.000
    C18      C        0.83090    0.78400    0.34350    1.000
    H12      H        0.84060    0.81460    0.41080    1.000
    Cd2      Cd       0.48456    0.57311    0.08092    1.000
    O7       O        0.99524    0.86610    0.12790    1.000
    C19      C        0.10292    0.78022    0.25308    1.000
    C20      C        0.14280    0.75717    0.37270    1.000
    H13      H        0.11750    0.77000    0.45280    1.000
    C21      C        0.22110    0.71456    0.37310    1.000
    H14      H        0.24870    0.69730    0.45420    1.000
    C22      C        0.25989    0.69683    0.25457    1.000
    C23      C        0.21411    0.71939    0.13671    1.000
    H15      H        0.23660    0.70520    0.05590    1.000
    C24      C        0.13617    0.76220    0.13385    1.000
    H16      H        0.10670    0.77850    0.05280    1.000
    C25      C        0.34752    0.65268    0.25328    1.000
    O8       O        0.37953    0.62972    0.36209    1.000
    O9       O        0.38002    0.64349    0.14194    1.000
    O10      O        0.99540    0.28230    0.37179    1.000
    C26      C        0.89512    0.36601    0.23172    1.000
    C27      C        0.86173    0.38859    0.10768    1.000
    H17      H        0.89650    0.37850    0.03300    1.000
    C28      C        0.77682    0.42619    0.09424    1.000
    H18      H        0.75290    0.44170    0.00990    1.000
    C29      C        0.72689    0.44101    0.20519    1.000
    C30      C        0.76225    0.41856    0.32930    1.000
    H19      H        0.72840    0.42910    0.40450    1.000
    C31      C        0.84627    0.38102    0.34306    1.000
    H20      H        0.87050    0.36560    0.42740    1.000
    C32      C        0.63690    0.48286    0.19406    1.000
    O11      O        0.59047    0.49073    0.07947    1.000
    O12      O        0.61413    0.50914    0.29552    1.000
    C33      C        0.11680    0.73420    0.35200    1.000
    H21      H        0.07170    0.73100    0.41870    1.000
    C34      C        0.19790    0.69350    0.35030    1.000
    H22      H        0.20920    0.66310    0.41790    1.000
    C35      C        0.24970    0.74320    0.15740    1.000
    H23      H        0.29700    0.74670    0.09340    1.000
    C36      C        0.16910    0.78400    0.15650    1.000
    H24      H        0.15940    0.81460    0.08920    1.000
    Cd3      Cd       0.48456    0.42689    0.58092    1.000
    O13      O        0.99524    0.13390    0.62790    1.000
    C37      C        0.10292    0.21978    0.75308    1.000
    C38      C        0.14280    0.24283    0.87270    1.000
    H25      H        0.11750    0.23000    0.95280    1.000
    C39      C        0.22110    0.28544    0.87310    1.000
    H26      H        0.24870    0.30270    0.95420    1.000
    C40      C        0.25989    0.30317    0.75457    1.000
    C41      C        0.21411    0.28061    0.63671    1.000
    H27      H        0.23660    0.29480    0.55590    1.000
    C42      C        0.13617    0.23780    0.63385    1.000
    H28      H        0.10670    0.22150    0.55280    1.000
    C43      C        0.34752    0.34732    0.75328    1.000
    O14      O        0.37953    0.37028    0.86209    1.000
    O15      O        0.38002    0.35651    0.64194    1.000
    O16      O        0.99540    0.71770    0.87179    1.000
    C44      C        0.89512    0.63399    0.73172    1.000
    C45      C        0.86173    0.61141    0.60768    1.000
    H29      H        0.89650    0.62150    0.53300    1.000
    C46      C        0.77682    0.57381    0.59424    1.000
    H30      H        0.75290    0.55830    0.50990    1.000
    C47      C        0.72689    0.55899    0.70519    1.000
    C48      C        0.76225    0.58144    0.82930    1.000
    H31      H        0.72840    0.57090    0.90450    1.000
    C49      C        0.84627    0.61898    0.84306    1.000
    H32      H        0.87050    0.63440    0.92740    1.000
    C50      C        0.63690    0.51714    0.69406    1.000
    O17      O        0.59047    0.50927    0.57947    1.000
    O18      O        0.61413    0.49086    0.79552    1.000
    C51      C        0.11680    0.26580    0.85200    1.000
    H33      H        0.07170    0.26900    0.91870    1.000
    C52      C        0.19790    0.30650    0.85030    1.000
    H34      H        0.20920    0.33690    0.91790    1.000
    C53      C        0.24970    0.25680    0.65740    1.000
    H35      H        0.29700    0.25330    0.59340    1.000
    C54      C        0.16910    0.21600    0.65650    1.000
    H36      H        0.15940    0.18540    0.58920    1.000
    Cd4      Cd       0.51544    0.42689    0.91908    1.000
    O19      O        0.00476    0.13390    0.87210    1.000
    C55      C        0.89708    0.21978    0.74692    1.000
    C56      C        0.85720    0.24283    0.62730    1.000
    H37      H        0.88250    0.23000    0.54720    1.000
    C57      C        0.77890    0.28544    0.62690    1.000
    H38      H        0.75130    0.30270    0.54580    1.000
    C58      C        0.74011    0.30317    0.74543    1.000
    C59      C        0.78589    0.28061    0.86329    1.000
    H39      H        0.76340    0.29480    0.94410    1.000
    C60      C        0.86383    0.23780    0.86615    1.000
    H40      H        0.89330    0.22150    0.94720    1.000
    C61      C        0.65248    0.34732    0.74672    1.000
    O20      O        0.62047    0.37028    0.63791    1.000
    O21      O        0.61998    0.35651    0.85806    1.000
    O22      O        0.00460    0.71770    0.62821    1.000
    C62      C        0.10488    0.63399    0.76828    1.000
    C63      C        0.13827    0.61141    0.89232    1.000
    H41      H        0.10350    0.62150    0.96700    1.000
    C64      C        0.22318    0.57381    0.90576    1.000
    H42      H        0.24710    0.55830    0.99010    1.000
    C65      C        0.27311    0.55899    0.79481    1.000
    C66      C        0.23775    0.58144    0.67070    1.000
    H43      H        0.27160    0.57090    0.59550    1.000
    C67      C        0.15373    0.61898    0.65694    1.000
    H44      H        0.12950    0.63440    0.57260    1.000
    C68      C        0.36310    0.51714    0.80594    1.000
    O23      O        0.40953    0.50927    0.92053    1.000
    O24      O        0.38587    0.49086    0.70448    1.000
    C69      C        0.88320    0.26580    0.64800    1.000
    H45      H        0.92830    0.26900    0.58130    1.000
    C70      C        0.80210    0.30650    0.64970    1.000
    H46      H        0.79080    0.33690    0.58210    1.000
    C71      C        0.75030    0.25680    0.84260    1.000
    H47      H        0.70300    0.25330    0.90660    1.000
    C72      C        0.83090    0.21600    0.84350    1.000
    H48      H        0.84060    0.18540    0.91080    1.000
    S1       S        0.00000    0.83146    0.25000    1.000
    S2       S        0.00000    0.16854    0.75000    1.000
    S3       S        0.00000    0.31570    0.25000    1.000
    S4       S        0.00000    0.68430    0.75000    1.000
    Cd5      Cd       0.01544    0.07311    0.41908    1.000
    O25      O        0.50476    0.36610    0.37210    1.000
    C73      C        0.39708    0.28022    0.24692    1.000
    C74      C        0.35720    0.25717    0.12730    1.000
    H49      H        0.38250    0.27000    0.04720    1.000
    C75      C        0.27890    0.21456    0.12690    1.000
    H50      H        0.25130    0.19730    0.04580    1.000
    C76      C        0.24011    0.19683    0.24543    1.000
    C77      C        0.28589    0.21939    0.36329    1.000
    H51      H        0.26340    0.20520    0.44410    1.000
    C78      C        0.36383    0.26220    0.36615    1.000
    H52      H        0.39330    0.27850    0.44720    1.000
    C79      C        0.15248    0.15268    0.24672    1.000
    O26      O        0.12047    0.12972    0.13791    1.000
    O27      O        0.11998    0.14349    0.35806    1.000
    O28      O        0.50460    0.78230    0.12821    1.000
    C80      C        0.60488    0.86601    0.26828    1.000
    C81      C        0.63827    0.88859    0.39232    1.000
    H53      H        0.60350    0.87850    0.46700    1.000
    C82      C        0.72318    0.92619    0.40576    1.000
    H54      H        0.74710    0.94170    0.49010    1.000
    C83      C        0.77311    0.94101    0.29481    1.000
    C84      C        0.73775    0.91856    0.17070    1.000
    H55      H        0.77160    0.92910    0.09550    1.000
    C85      C        0.65373    0.88102    0.15694    1.000
    H56      H        0.62950    0.86560    0.07260    1.000
    C86      C        0.86310    0.98286    0.30594    1.000
    O29      O        0.90953    0.99073    0.42053    1.000
    O30      O        0.88587    0.00914    0.20448    1.000
    C87      C        0.38320    0.23420    0.14800    1.000
    H57      H        0.42830    0.23100    0.08130    1.000
    C88      C        0.30210    0.19350    0.14970    1.000
    H58      H        0.29080    0.16310    0.08210    1.000
    C89      C        0.25030    0.24320    0.34260    1.000
    H59      H        0.20300    0.24670    0.40660    1.000
    C90      C        0.33090    0.28400    0.34350    1.000
    H60      H        0.34060    0.31460    0.41080    1.000
    Cd6      Cd       0.98456    0.07311    0.08092    1.000
    O31      O        0.49524    0.36610    0.12790    1.000
    C91      C        0.60292    0.28022    0.25308    1.000
    C92      C        0.64280    0.25717    0.37270    1.000
    H61      H        0.61750    0.27000    0.45280    1.000
    C93      C        0.72110    0.21456    0.37310    1.000
    H62      H        0.74870    0.19730    0.45420    1.000
    C94      C        0.75989    0.19683    0.25457    1.000
    C95      C        0.71411    0.21939    0.13671    1.000
    H63      H        0.73660    0.20520    0.05590    1.000
    C96      C        0.63617    0.26220    0.13385    1.000
    H64      H        0.60670    0.27850    0.05280    1.000
    C97      C        0.84752    0.15268    0.25328    1.000
    O32      O        0.87953    0.12972    0.36209    1.000
    O33      O        0.88002    0.14349    0.14194    1.000
    O34      O        0.49540    0.78230    0.37179    1.000
    C98      C        0.39512    0.86601    0.23172    1.000
    C99      C        0.36173    0.88859    0.10768    1.000
    H65      H        0.39650    0.87850    0.03300    1.000
    C100     C        0.27682    0.92619    0.09424    1.000
    H66      H        0.25290    0.94170    0.00990    1.000
    C101     C        0.22689    0.94101    0.20519    1.000
    C102     C        0.26225    0.91856    0.32930    1.000
    H67      H        0.22840    0.92910    0.40450    1.000
    C103     C        0.34627    0.88102    0.34306    1.000
    H68      H        0.37050    0.86560    0.42740    1.000
    C104     C        0.13690    0.98286    0.19406    1.000
    O35      O        0.09047    0.99073    0.07947    1.000
    O36      O        0.11413    0.00914    0.29552    1.000
    C105     C        0.61680    0.23420    0.35200    1.000
    H69      H        0.57170    0.23100    0.41870    1.000
    C106     C        0.69790    0.19350    0.35030    1.000
    H70      H        0.70920    0.16310    0.41790    1.000
    C107     C        0.74970    0.24320    0.15740    1.000
    H71      H        0.79700    0.24670    0.09340    1.000
    C108     C        0.66910    0.28400    0.15650    1.000
    H72      H        0.65940    0.31460    0.08920    1.000
    Cd7      Cd       0.98456    0.92689    0.58092    1.000
    O37      O        0.49524    0.63390    0.62790    1.000
    C109     C        0.60292    0.71978    0.75308    1.000
    C110     C        0.64280    0.74283    0.87270    1.000
    H73      H        0.61750    0.73000    0.95280    1.000
    C111     C        0.72110    0.78544    0.87310    1.000
    H74      H        0.74870    0.80270    0.95420    1.000
    C112     C        0.75989    0.80317    0.75457    1.000
    C113     C        0.71411    0.78061    0.63671    1.000
    H75      H        0.73660    0.79480    0.55590    1.000
    C114     C        0.63617    0.73780    0.63385    1.000
    H76      H        0.60670    0.72150    0.55280    1.000
    C115     C        0.84752    0.84732    0.75328    1.000
    O38      O        0.87953    0.87028    0.86209    1.000
    O39      O        0.88002    0.85651    0.64194    1.000
    O40      O        0.49540    0.21770    0.87179    1.000
    C116     C        0.39512    0.13399    0.73172    1.000
    C117     C        0.36173    0.11141    0.60768    1.000
    H77      H        0.39650    0.12150    0.53300    1.000
    C118     C        0.27682    0.07381    0.59424    1.000
    H78      H        0.25290    0.05830    0.50990    1.000
    C119     C        0.22689    0.05899    0.70519    1.000
    C120     C        0.26225    0.08144    0.82930    1.000
    H79      H        0.22840    0.07090    0.90450    1.000
    C121     C        0.34627    0.11898    0.84306    1.000
    H80      H        0.37050    0.13440    0.92740    1.000
    C122     C        0.13690    0.01714    0.69406    1.000
    O41      O        0.09047    0.00927    0.57947    1.000
    O42      O        0.11413    0.99086    0.79552    1.000
    C123     C        0.61680    0.76580    0.85200    1.000
    H81      H        0.57170    0.76900    0.91870    1.000
    C124     C        0.69790    0.80650    0.85030    1.000
    H82      H        0.70920    0.83690    0.91790    1.000
    C125     C        0.74970    0.75680    0.65740    1.000
    H83      H        0.79700    0.75330    0.59340    1.000
    C126     C        0.66910    0.71600    0.65650    1.000
    H84      H        0.65940    0.68540    0.58920    1.000
    Cd8      Cd       0.01544    0.92689    0.91908    1.000
    O43      O        0.50476    0.63390    0.87210    1.000
    C127     C        0.39708    0.71978    0.74692    1.000
    C128     C        0.35720    0.74283    0.62730    1.000
    H85      H        0.38250    0.73000    0.54720    1.000
    C129     C        0.27890    0.78544    0.62690    1.000
    H86      H        0.25130    0.80270    0.54580    1.000
    C130     C        0.24011    0.80317    0.74543    1.000
    C131     C        0.28589    0.78061    0.86329    1.000
    H87      H        0.26340    0.79480    0.94410    1.000
    C132     C        0.36383    0.73780    0.86615    1.000
    H88      H        0.39330    0.72150    0.94720    1.000
    C133     C        0.15248    0.84732    0.74672    1.000
    O44      O        0.12047    0.87028    0.63791    1.000
    O45      O        0.11998    0.85651    0.85806    1.000
    O46      O        0.50460    0.21770    0.62821    1.000
    C134     C        0.60488    0.13399    0.76828    1.000
    C135     C        0.63827    0.11141    0.89232    1.000
    H89      H        0.60350    0.12150    0.96700    1.000
    C136     C        0.72318    0.07381    0.90576    1.000
    H90      H        0.74710    0.05830    0.99010    1.000
    C137     C        0.77311    0.05899    0.79481    1.000
    C138     C        0.73775    0.08144    0.67070    1.000
    H91      H        0.77160    0.07090    0.59550    1.000
    C139     C        0.65373    0.11898    0.65694    1.000
    H92      H        0.62950    0.13440    0.57260    1.000
    C140     C        0.86310    0.01714    0.80594    1.000
    O47      O        0.90953    0.00927    0.92053    1.000
    O48      O        0.88587    0.99086    0.70448    1.000
    C141     C        0.38320    0.76580    0.64800    1.000
    H93      H        0.42830    0.76900    0.58130    1.000
    C142     C        0.30210    0.80650    0.64970    1.000
    H94      H        0.29080    0.83690    0.58210    1.000
    C143     C        0.25030    0.75680    0.84260    1.000
    H95      H        0.20300    0.75330    0.90660    1.000
    C144     C        0.33090    0.71600    0.84350    1.000
    H96      H        0.34060    0.68540    0.91080    1.000
    S5       S        0.50000    0.33146    0.25000    1.000
    S6       S        0.50000    0.66854    0.75000    1.000
    S7       S        0.50000    0.81570    0.25000    1.000
    S8       S        0.50000    0.18430    0.75000    1.000
