# CIF file generated by openbabel 3.1.0, see https://openbabel.org
data_I
_chemical_name_common 'image0'
_cell_length_a 9.362
_cell_length_b 9.362
_cell_length_c 7.004
_cell_angle_alpha 90
_cell_angle_beta 90
_cell_angle_gamma 120
_space_group_name_H-M_alt 'P 1'
_space_group_name_Hall 'P 1'
loop_
    _symmetry_equiv_pos_as_xyz
    x,y,z
loop_
    _atom_site_label
    _atom_site_type_symbol
    _atom_site_fract_x
    _atom_site_fract_y
    _atom_site_fract_z
    _atom_site_occupancy
    Al1      Al       0.16200    0.52099    0.05633    1.000
    O1       O        0.30150    0.73000    0.96020    1.000
    H1       H        0.34570    0.81220    0.06210    1.000
    O2       O        0.27850    0.42720    0.95920    1.000
    O3       O        0.53280    0.56530    0.16940    1.000
    Al2      Al       0.47901    0.64101    0.38966    1.000
    O4       O        0.27000    0.57150    0.29353    1.000
    H2       H        0.18780    0.53350    0.39543    1.000
    O5       O        0.57280    0.85130    0.29253    1.000
    O6       O        0.43470    0.96750    0.50273    1.000
    Al3      Al       0.35899    0.83800    0.72300    1.000
    O7       O        0.42850    0.69850    0.62687    1.000
    H3       H        0.46650    0.65430    0.72877    1.000
    O8       O        0.14870    0.72150    0.62587    1.000
    O9       O        0.03250    0.46720    0.83607    1.000
    Al4      Al       0.52099    0.16200    0.94367    1.000
    O10      O        0.73000    0.30150    0.03980    1.000
    H4       H        0.81220    0.34570    0.93790    1.000
    O11      O        0.42720    0.27850    0.04080    1.000
    O12      O        0.56530    0.53280    0.83060    1.000
    Al5      Al       0.64101    0.47901    0.61034    1.000
    O13      O        0.57150    0.27000    0.70647    1.000
    H5       H        0.53350    0.18780    0.60457    1.000
    O14      O        0.85130    0.57280    0.70747    1.000
    O15      O        0.96750    0.43470    0.49727    1.000
    Al6      Al       0.83800    0.35899    0.27700    1.000
    O16      O        0.69850    0.42850    0.37313    1.000
    H6       H        0.65430    0.46650    0.27123    1.000
    O17      O        0.72150    0.14870    0.37413    1.000
    O18      O        0.46720    0.03250    0.16393    1.000
    P1       P        0.44934    0.44934    0.00000    1.000
    P2       P        0.55066    0.00000    0.33333    1.000
    P3       P        0.00000    0.55066    0.66667    1.000
    F1       F        0.00000    0.31780    0.16667    1.000
    F2       F        0.00000    0.56860    0.16667    1.000
    F3       F        0.68220    0.68220    0.50000    1.000
    F4       F        0.43140    0.43140    0.50000    1.000
    F5       F        0.31780    0.00000    0.83333    1.000
    F6       F        0.56860    0.00000    0.83333    1.000
