# CIF file generated by openbabel 3.1.0, see https://openbabel.org
data_I
_chemical_name_common 'image0'
_cell_length_a 22.4022
_cell_length_b 22.4022
_cell_length_c 9.1637
_cell_angle_alpha 90
_cell_angle_beta 90
_cell_angle_gamma 120
_space_group_name_H-M_alt 'P 1'
_space_group_name_Hall 'P 1'
loop_
    _symmetry_equiv_pos_as_xyz
    x,y,z
loop_
    _atom_site_label
    _atom_site_type_symbol
    _atom_site_fract_x
    _atom_site_fract_y
    _atom_site_fract_z
    _atom_site_occupancy
    O1       O        0.33920    0.61440    0.49080    1.000
    O2       O        0.57650    0.37680    0.48480    1.000
    C1       C        0.47540    0.59300    0.62550    1.000
    C2       C        0.51310    0.55620    0.58800    1.000
    C3       C        0.57490    0.57470    0.65860    1.000
    C4       C        0.60410    0.53280    0.64770    1.000
    C5       C        0.57150    0.47240    0.56630    1.000
    C6       C        0.50970    0.45390    0.49570    1.000
    C7       C        0.48050    0.49580    0.50660    1.000
    H1       H        0.59510    0.61770    0.72090    1.000
    H2       H        0.64460    0.54690    0.70560    1.000
    H3       H        0.48720    0.41420    0.44320    1.000
    H4       H        0.43780    0.48500    0.45850    1.000
    H5       H        0.39060    0.53930    0.53890    1.000
    H6       H        0.50020    0.63600    0.69520    1.000
    O3       O        0.38560    0.72480    0.15747    1.000
    O4       O        0.62320    0.19970    0.15147    1.000
    C8       C        0.40700    0.88240    0.29217    1.000
    C9       C        0.44380    0.95690    0.25467    1.000
    C10      C        0.42530    0.00020    0.32527    1.000
    C11      C        0.46720    0.07130    0.31437    1.000
    C12      C        0.52760    0.09910    0.23297    1.000
    C13      C        0.54610    0.05580    0.16237    1.000
    C14      C        0.50420    0.98470    0.17327    1.000
    H7       H        0.38230    0.97740    0.38757    1.000
    H8       H        0.45310    0.09770    0.37227    1.000
    H9       H        0.58580    0.07300    0.10987    1.000
    H10      H        0.51500    0.95280    0.12517    1.000
    H11      H        0.46070    0.85130    0.20557    1.000
    H12      H        0.36400    0.86420    0.36187    1.000
    O5       O        0.27520    0.66080    0.82413    1.000
    O6       O        0.80030    0.42350    0.81813    1.000
    C15      C        0.11760    0.52460    0.95883    1.000
    C16      C        0.04310    0.48690    0.92133    1.000
    C17      C        0.99980    0.42510    0.99193    1.000
    C18      C        0.92870    0.39590    0.98103    1.000
    C19      C        0.90090    0.42850    0.89963    1.000
    C20      C        0.94420    0.49030    0.82903    1.000
    C21      C        0.01530    0.51950    0.83993    1.000
    H13      H        0.02260    0.40490    0.05423    1.000
    H14      H        0.90230    0.35540    0.03893    1.000
    H15      H        0.92700    0.51280    0.77653    1.000
    H16      H        0.04720    0.56220    0.79183    1.000
    H17      H        0.14870    0.60940    0.87223    1.000
    H18      H        0.13580    0.49980    0.02853    1.000
    O7       O        0.66080    0.38560    0.99080    1.000
    O8       O        0.42350    0.62320    0.98480    1.000
    C22      C        0.52460    0.40700    0.12550    1.000
    C23      C        0.48690    0.44380    0.08800    1.000
    C24      C        0.42510    0.42530    0.15860    1.000
    C25      C        0.39590    0.46720    0.14770    1.000
    C26      C        0.42850    0.52760    0.06630    1.000
    C27      C        0.49030    0.54610    0.99570    1.000
    C28      C        0.51950    0.50420    0.00660    1.000
    H19      H        0.40490    0.38230    0.22090    1.000
    H20      H        0.35540    0.45310    0.20560    1.000
    H21      H        0.51280    0.58580    0.94320    1.000
    H22      H        0.56220    0.51500    0.95850    1.000
    H23      H        0.60940    0.46070    0.03890    1.000
    H24      H        0.49980    0.36400    0.19520    1.000
    O9       O        0.61440    0.27520    0.65747    1.000
    O10      O        0.37680    0.80030    0.65147    1.000
    C29      C        0.59300    0.11760    0.79217    1.000
    C30      C        0.55620    0.04310    0.75467    1.000
    C31      C        0.57470    0.99980    0.82527    1.000
    C32      C        0.53280    0.92870    0.81437    1.000
    C33      C        0.47240    0.90090    0.73297    1.000
    C34      C        0.45390    0.94420    0.66237    1.000
    C35      C        0.49580    0.01530    0.67327    1.000
    H25      H        0.61770    0.02260    0.88757    1.000
    H26      H        0.54690    0.90230    0.87227    1.000
    H27      H        0.41420    0.92700    0.60987    1.000
    H28      H        0.48500    0.04720    0.62517    1.000
    H29      H        0.53930    0.14870    0.70557    1.000
    H30      H        0.63600    0.13580    0.86187    1.000
    O11      O        0.72480    0.33920    0.32413    1.000
    O12      O        0.19970    0.57650    0.31813    1.000
    C36      C        0.88240    0.47540    0.45883    1.000
    C37      C        0.95690    0.51310    0.42133    1.000
    C38      C        0.00020    0.57490    0.49193    1.000
    C39      C        0.07130    0.60410    0.48103    1.000
    C40      C        0.09910    0.57150    0.39963    1.000
    C41      C        0.05580    0.50970    0.32903    1.000
    C42      C        0.98470    0.48050    0.33993    1.000
    H31      H        0.97740    0.59510    0.55423    1.000
    H32      H        0.09770    0.64460    0.53893    1.000
    H33      H        0.07300    0.48720    0.27653    1.000
    H34      H        0.95280    0.43780    0.29183    1.000
    H35      H        0.85130    0.39060    0.37223    1.000
    H36      H        0.86420    0.50020    0.52853    1.000
    O13      O        0.61440    0.33920    0.17587    1.000
    O14      O        0.37680    0.57650    0.18187    1.000
    C43      C        0.59300    0.47540    0.04117    1.000
    C44      C        0.55620    0.51310    0.07867    1.000
    C45      C        0.57470    0.57490    0.00807    1.000
    C46      C        0.53280    0.60410    0.01897    1.000
    C47      C        0.47240    0.57150    0.10037    1.000
    C48      C        0.45390    0.50970    0.17097    1.000
    C49      C        0.49580    0.48050    0.16007    1.000
    H37      H        0.61770    0.59510    0.94577    1.000
    H38      H        0.54690    0.64460    0.96107    1.000
    H39      H        0.41420    0.48720    0.22347    1.000
    H40      H        0.48500    0.43780    0.20817    1.000
    H41      H        0.53930    0.39060    0.12777    1.000
    H42      H        0.63600    0.50020    0.97147    1.000
    O15      O        0.72480    0.38560    0.50920    1.000
    O16      O        0.19970    0.62320    0.51520    1.000
    C50      C        0.88240    0.40700    0.37450    1.000
    C51      C        0.95690    0.44380    0.41200    1.000
    C52      C        0.00020    0.42530    0.34140    1.000
    C53      C        0.07130    0.46720    0.35230    1.000
    C54      C        0.09910    0.52760    0.43370    1.000
    C55      C        0.05580    0.54610    0.50430    1.000
    C56      C        0.98470    0.50420    0.49340    1.000
    H43      H        0.97740    0.38230    0.27910    1.000
    H44      H        0.09770    0.45310    0.29440    1.000
    H45      H        0.07300    0.58580    0.55680    1.000
    H46      H        0.95280    0.51500    0.54150    1.000
    H47      H        0.85130    0.46070    0.46110    1.000
    H48      H        0.86420    0.36400    0.30480    1.000
    O17      O        0.66080    0.27520    0.84253    1.000
    O18      O        0.42350    0.80030    0.84853    1.000
    C57      C        0.52460    0.11760    0.70783    1.000
    C58      C        0.48690    0.04310    0.74533    1.000
    C59      C        0.42510    0.99980    0.67473    1.000
    C60      C        0.39590    0.92870    0.68563    1.000
    C61      C        0.42850    0.90090    0.76703    1.000
    C62      C        0.49030    0.94420    0.83763    1.000
    C63      C        0.51950    0.01530    0.82673    1.000
    H49      H        0.40490    0.02260    0.61243    1.000
    H50      H        0.35540    0.90230    0.62773    1.000
    H51      H        0.51280    0.92700    0.89013    1.000
    H52      H        0.56220    0.04720    0.87483    1.000
    H53      H        0.60940    0.14870    0.79443    1.000
    H54      H        0.49980    0.13580    0.63813    1.000
    O19      O        0.38560    0.66080    0.67587    1.000
    O20      O        0.62320    0.42350    0.68187    1.000
    C64      C        0.40700    0.52460    0.54117    1.000
    C65      C        0.44380    0.48690    0.57867    1.000
    C66      C        0.42530    0.42510    0.50807    1.000
    C67      C        0.46720    0.39590    0.51897    1.000
    C68      C        0.52760    0.42850    0.60037    1.000
    C69      C        0.54610    0.49030    0.67097    1.000
    C70      C        0.50420    0.51950    0.66007    1.000
    H55      H        0.38230    0.40490    0.44577    1.000
    H56      H        0.45310    0.35540    0.46107    1.000
    H57      H        0.58580    0.51280    0.72347    1.000
    H58      H        0.51500    0.56220    0.70817    1.000
    H59      H        0.46070    0.60940    0.62777    1.000
    H60      H        0.36400    0.49980    0.47147    1.000
    O21      O        0.27520    0.61440    0.00920    1.000
    O22      O        0.80030    0.37680    0.01520    1.000
    C71      C        0.11760    0.59300    0.87450    1.000
    C72      C        0.04310    0.55620    0.91200    1.000
    C73      C        0.99980    0.57470    0.84140    1.000
    C74      C        0.92870    0.53280    0.85230    1.000
    C75      C        0.90090    0.47240    0.93370    1.000
    C76      C        0.94420    0.45390    0.00430    1.000
    C77      C        0.01530    0.49580    0.99340    1.000
    H61      H        0.02260    0.61770    0.77910    1.000
    H62      H        0.90230    0.54690    0.79440    1.000
    H63      H        0.92700    0.41420    0.05680    1.000
    H64      H        0.04720    0.48500    0.04150    1.000
    H65      H        0.14870    0.53930    0.96110    1.000
    H66      H        0.13580    0.63600    0.80480    1.000
    O23      O        0.33920    0.72480    0.34253    1.000
    O24      O        0.57650    0.19970    0.34853    1.000
    C78      C        0.47540    0.88240    0.20783    1.000
    C79      C        0.51310    0.95690    0.24533    1.000
    C80      C        0.57490    0.00020    0.17473    1.000
    C81      C        0.60410    0.07130    0.18563    1.000
    C82      C        0.57150    0.09910    0.26703    1.000
    C83      C        0.50970    0.05580    0.33763    1.000
    C84      C        0.48050    0.98470    0.32673    1.000
    H67      H        0.59510    0.97740    0.11243    1.000
    H68      H        0.64460    0.09770    0.12773    1.000
    H69      H        0.48720    0.07300    0.39013    1.000
    H70      H        0.43780    0.95280    0.37483    1.000
    H71      H        0.39060    0.85130    0.29443    1.000
    H72      H        0.50020    0.86420    0.13813    1.000
    Cd1      Cd       0.30385    0.69615    0.58333    1.000
    C85      C        0.37744    0.62256    0.58333    1.000
    C86      C        0.58620    0.41380    0.58333    1.000
    C87      C        0.41570    0.58430    0.58333    1.000
    Cd2      Cd       0.30385    0.60770    0.25000    1.000
    C88      C        0.37744    0.75488    0.25000    1.000
    C89      C        0.58620    0.17240    0.25000    1.000
    C90      C        0.41570    0.83140    0.25000    1.000
    Cd3      Cd       0.39230    0.69615    0.91667    1.000
    C91      C        0.24512    0.62256    0.91667    1.000
    C92      C        0.82760    0.41380    0.91667    1.000
    C93      C        0.16860    0.58430    0.91667    1.000
    Cd4      Cd       0.69615    0.30385    0.08333    1.000
    C94      C        0.62256    0.37744    0.08333    1.000
    C95      C        0.41380    0.58620    0.08333    1.000
    C96      C        0.58430    0.41570    0.08333    1.000
    Cd5      Cd       0.69615    0.39230    0.75000    1.000
    C97      C        0.62256    0.24512    0.75000    1.000
    C98      C        0.41380    0.82760    0.75000    1.000
    C99      C        0.58430    0.16860    0.75000    1.000
    Cd6      Cd       0.60770    0.30385    0.41667    1.000
    C100     C        0.75488    0.37744    0.41667    1.000
    C101     C        0.17240    0.58620    0.41667    1.000
    C102     C        0.83140    0.41570    0.41667    1.000
