# CIF file generated by openbabel 3.1.0, see https://openbabel.org
data_I
_chemical_name_common 'image0'
_cell_length_a 19.862
_cell_length_b 11.645
_cell_length_c 22.813
_cell_angle_alpha 90
_cell_angle_beta 90
_cell_angle_gamma 90
_space_group_name_H-M_alt 'P 1'
_space_group_name_Hall 'P 1'
loop_
    _symmetry_equiv_pos_as_xyz
    x,y,z
loop_
    _atom_site_label
    _atom_site_type_symbol
    _atom_site_fract_x
    _atom_site_fract_y
    _atom_site_fract_z
    _atom_site_occupancy
    Zn1      Zn       0.08241    0.57661    0.61832    1.000
    O1       O        0.07305    0.68257    0.53751    1.000
    O2       O        0.05825    0.66067    0.44047    1.000
    O3       O        0.09746    0.41549    0.66211    1.000
    O4       O        0.10072    0.22497    0.64604    1.000
    O5       O        0.18658    0.14096    0.52683    1.000
    O6       O        0.08076    0.07103    0.53086    1.000
    O7       O        0.13139    0.47699    0.36132    1.000
    O8       O        0.02137    0.44064    0.36207    1.000
    N1       N        0.08479    0.46036    0.55138    1.000
    N2       N        0.09457    0.30522    0.46181    1.000
    N3       N        0.08405    0.70498    0.67974    1.000
    N4       N        0.05826    0.14693    0.88645    1.000
    H1       H        0.05420    0.20570    0.91220    1.000
    C1       C        0.06981    0.62496    0.49081    1.000
    C2       C        0.07957    0.49638    0.49644    1.000
    C3       C        0.08325    0.41701    0.45060    1.000
    C4       C        0.07778    0.44974    0.38612    1.000
    C5       C        0.09803    0.32554    0.62982    1.000
    C6       C        0.09425    0.35067    0.56419    1.000
    C7       C        0.10044    0.27229    0.51816    1.000
    C8       C        0.12252    0.14889    0.52689    1.000
    C9       C        0.08766    0.68327    0.73726    1.000
    H2       H        0.08950    0.60730    0.74970    1.000
    C10      C        0.08871    0.76919    0.77878    1.000
    H3       H        0.09170    0.75070    0.81840    1.000
    C11      C        0.08523    0.88321    0.76155    1.000
    C12      C        0.08440    0.90585    0.70147    1.000
    H4       H        0.08430    0.98110    0.68780    1.000
    C13      C        0.08367    0.81497    0.66262    1.000
    H5       H        0.08290    0.83090    0.62270    1.000
    C14      C        0.07850    0.97688    0.80526    1.000
    C15      C        0.07214    0.95114    0.86507    1.000
    H6       H        0.07530    0.87550    0.87790    1.000
    C16      C        0.06126    0.03811    0.90462    1.000
    H7       H        0.05600    0.02110    0.94420    1.000
    C17      C        0.06469    0.17538    0.82992    1.000
    H8       H        0.06230    0.25210    0.81880    1.000
    C18      C        0.07483    0.09180    0.78818    1.000
    H9       H        0.07920    0.11180    0.74890    1.000
    C19      C        0.23818    0.09632    0.65288    1.000
    H10      H        0.23030    0.16400    0.63230    1.000
    C20      C        0.23718    0.09998    0.71366    1.000
    H11      H        0.22800    0.16850    0.73300    1.000
    C21      C        0.24006    0.10069    0.84304    1.000
    H12      H        0.23340    0.17010    0.82370    1.000
    C22      C        0.24011    0.09708    0.90368    1.000
    H13      H        0.23300    0.16500    0.92420    1.000
    Zn2      Zn       0.41759    0.42339    0.61832    1.000
    O9       O        0.42695    0.31743    0.53751    1.000
    O10      O        0.44175    0.33933    0.44047    1.000
    O11      O        0.40254    0.58451    0.66211    1.000
    O12      O        0.39928    0.77503    0.64604    1.000
    O13      O        0.31342    0.85904    0.52683    1.000
    O14      O        0.41924    0.92897    0.53086    1.000
    O15      O        0.36861    0.52301    0.36132    1.000
    O16      O        0.47863    0.55936    0.36207    1.000
    N5       N        0.41521    0.53964    0.55138    1.000
    N6       N        0.40543    0.69478    0.46181    1.000
    N7       N        0.41595    0.29502    0.67974    1.000
    N8       N        0.44174    0.85307    0.88645    1.000
    H14      H        0.44580    0.79430    0.91220    1.000
    C23      C        0.43019    0.37504    0.49081    1.000
    C24      C        0.42043    0.50362    0.49644    1.000
    C25      C        0.41675    0.58299    0.45060    1.000
    C26      C        0.42222    0.55026    0.38612    1.000
    C27      C        0.40197    0.67446    0.62982    1.000
    C28      C        0.40575    0.64933    0.56419    1.000
    C29      C        0.39956    0.72771    0.51816    1.000
    C30      C        0.37748    0.85111    0.52689    1.000
    C31      C        0.41234    0.31673    0.73726    1.000
    H15      H        0.41050    0.39270    0.74970    1.000
    C32      C        0.41129    0.23081    0.77878    1.000
    H16      H        0.40830    0.24930    0.81840    1.000
    C33      C        0.41477    0.11679    0.76155    1.000
    C34      C        0.41560    0.09415    0.70147    1.000
    H17      H        0.41570    0.01890    0.68780    1.000
    C35      C        0.41633    0.18503    0.66262    1.000
    H18      H        0.41710    0.16910    0.62270    1.000
    C36      C        0.42150    0.02312    0.80526    1.000
    C37      C        0.42786    0.04886    0.86507    1.000
    H19      H        0.42470    0.12450    0.87790    1.000
    C38      C        0.43874    0.96189    0.90462    1.000
    H20      H        0.44400    0.97890    0.94420    1.000
    C39      C        0.43531    0.82462    0.82992    1.000
    H21      H        0.43770    0.74790    0.81880    1.000
    C40      C        0.42517    0.90820    0.78818    1.000
    H22      H        0.42080    0.88820    0.74890    1.000
    C41      C        0.26182    0.90368    0.65288    1.000
    H23      H        0.26970    0.83600    0.63230    1.000
    C42      C        0.26282    0.90002    0.71366    1.000
    H24      H        0.27200    0.83150    0.73300    1.000
    C43      C        0.25994    0.89931    0.84304    1.000
    H25      H        0.26660    0.82990    0.82370    1.000
    C44      C        0.25989    0.90292    0.90368    1.000
    H26      H        0.26700    0.83500    0.92420    1.000
    Zn3      Zn       0.91759    0.57661    0.88168    1.000
    O17      O        0.92695    0.68257    0.96249    1.000
    O18      O        0.94175    0.66067    0.05953    1.000
    O19      O        0.90254    0.41549    0.83789    1.000
    O20      O        0.89928    0.22497    0.85396    1.000
    O21      O        0.81342    0.14096    0.97317    1.000
    O22      O        0.91924    0.07103    0.96914    1.000
    O23      O        0.86861    0.47699    0.13868    1.000
    O24      O        0.97863    0.44064    0.13793    1.000
    N9       N        0.91521    0.46036    0.94862    1.000
    N10      N        0.90543    0.30522    0.03819    1.000
    N11      N        0.91595    0.70498    0.82026    1.000
    N12      N        0.94174    0.14693    0.61355    1.000
    H27      H        0.94580    0.20570    0.58780    1.000
    C45      C        0.93019    0.62496    0.00919    1.000
    C46      C        0.92043    0.49638    0.00356    1.000
    C47      C        0.91675    0.41701    0.04940    1.000
    C48      C        0.92222    0.44974    0.11388    1.000
    C49      C        0.90197    0.32554    0.87018    1.000
    C50      C        0.90575    0.35067    0.93581    1.000
    C51      C        0.89956    0.27229    0.98184    1.000
    C52      C        0.87748    0.14889    0.97311    1.000
    C53      C        0.91234    0.68327    0.76274    1.000
    H28      H        0.91050    0.60730    0.75030    1.000
    C54      C        0.91129    0.76919    0.72122    1.000
    H29      H        0.90830    0.75070    0.68160    1.000
    C55      C        0.91477    0.88321    0.73845    1.000
    C56      C        0.91560    0.90585    0.79853    1.000
    H30      H        0.91570    0.98110    0.81220    1.000
    C57      C        0.91633    0.81497    0.83738    1.000
    H31      H        0.91710    0.83090    0.87730    1.000
    C58      C        0.92150    0.97688    0.69474    1.000
    C59      C        0.92786    0.95114    0.63493    1.000
    H32      H        0.92470    0.87550    0.62210    1.000
    C60      C        0.93874    0.03811    0.59538    1.000
    H33      H        0.94400    0.02110    0.55580    1.000
    C61      C        0.93531    0.17538    0.67008    1.000
    H34      H        0.93770    0.25210    0.68120    1.000
    C62      C        0.92517    0.09180    0.71182    1.000
    H35      H        0.92080    0.11180    0.75110    1.000
    C63      C        0.76182    0.09632    0.84712    1.000
    H36      H        0.76970    0.16400    0.86770    1.000
    C64      C        0.76282    0.09998    0.78634    1.000
    H37      H        0.77200    0.16850    0.76700    1.000
    C65      C        0.75994    0.10069    0.65696    1.000
    H38      H        0.76660    0.17010    0.67630    1.000
    C66      C        0.75989    0.09708    0.59632    1.000
    H39      H        0.76700    0.16500    0.57580    1.000
    Zn4      Zn       0.58241    0.42339    0.88168    1.000
    O25      O        0.57305    0.31743    0.96249    1.000
    O26      O        0.55825    0.33933    0.05953    1.000
    O27      O        0.59746    0.58451    0.83789    1.000
    O28      O        0.60072    0.77503    0.85396    1.000
    O29      O        0.68658    0.85904    0.97317    1.000
    O30      O        0.58076    0.92897    0.96914    1.000
    O31      O        0.63139    0.52301    0.13868    1.000
    O32      O        0.52137    0.55936    0.13793    1.000
    N13      N        0.58479    0.53964    0.94862    1.000
    N14      N        0.59457    0.69478    0.03819    1.000
    N15      N        0.58405    0.29502    0.82026    1.000
    N16      N        0.55826    0.85307    0.61355    1.000
    H40      H        0.55420    0.79430    0.58780    1.000
    C67      C        0.56981    0.37504    0.00919    1.000
    C68      C        0.57957    0.50362    0.00356    1.000
    C69      C        0.58325    0.58299    0.04940    1.000
    C70      C        0.57778    0.55026    0.11388    1.000
    C71      C        0.59803    0.67446    0.87018    1.000
    C72      C        0.59425    0.64933    0.93581    1.000
    C73      C        0.60044    0.72771    0.98184    1.000
    C74      C        0.62252    0.85111    0.97311    1.000
    C75      C        0.58766    0.31673    0.76274    1.000
    H41      H        0.58950    0.39270    0.75030    1.000
    C76      C        0.58871    0.23081    0.72122    1.000
    H42      H        0.59170    0.24930    0.68160    1.000
    C77      C        0.58523    0.11679    0.73845    1.000
    C78      C        0.58440    0.09415    0.79853    1.000
    H43      H        0.58430    0.01890    0.81220    1.000
    C79      C        0.58367    0.18503    0.83738    1.000
    H44      H        0.58290    0.16910    0.87730    1.000
    C80      C        0.57850    0.02312    0.69474    1.000
    C81      C        0.57214    0.04886    0.63493    1.000
    H45      H        0.57530    0.12450    0.62210    1.000
    C82      C        0.56126    0.96189    0.59538    1.000
    H46      H        0.55600    0.97890    0.55580    1.000
    C83      C        0.56469    0.82462    0.67008    1.000
    H47      H        0.56230    0.74790    0.68120    1.000
    C84      C        0.57483    0.90820    0.71182    1.000
    H48      H        0.57920    0.88820    0.75110    1.000
    C85      C        0.73818    0.90368    0.84712    1.000
    H49      H        0.73030    0.83600    0.86770    1.000
    C86      C        0.73718    0.90002    0.78634    1.000
    H50      H        0.72800    0.83150    0.76700    1.000
    C87      C        0.74006    0.89931    0.65696    1.000
    H51      H        0.73340    0.82990    0.67630    1.000
    C88      C        0.74011    0.90292    0.59632    1.000
    H52      H        0.73300    0.83500    0.57580    1.000
    Zn5      Zn       0.91759    0.42339    0.38168    1.000
    O33      O        0.92695    0.31743    0.46249    1.000
    O34      O        0.94175    0.33933    0.55953    1.000
    O35      O        0.90254    0.58451    0.33789    1.000
    O36      O        0.89928    0.77503    0.35396    1.000
    O37      O        0.81342    0.85904    0.47317    1.000
    O38      O        0.91924    0.92897    0.46914    1.000
    O39      O        0.86861    0.52301    0.63868    1.000
    O40      O        0.97863    0.55936    0.63793    1.000
    N17      N        0.91521    0.53964    0.44862    1.000
    N18      N        0.90543    0.69478    0.53819    1.000
    N19      N        0.91595    0.29502    0.32026    1.000
    N20      N        0.94174    0.85307    0.11355    1.000
    H53      H        0.94580    0.79430    0.08780    1.000
    C89      C        0.93019    0.37504    0.50919    1.000
    C90      C        0.92043    0.50362    0.50356    1.000
    C91      C        0.91675    0.58299    0.54940    1.000
    C92      C        0.92222    0.55026    0.61388    1.000
    C93      C        0.90197    0.67446    0.37018    1.000
    C94      C        0.90575    0.64933    0.43581    1.000
    C95      C        0.89956    0.72771    0.48184    1.000
    C96      C        0.87748    0.85111    0.47311    1.000
    C97      C        0.91234    0.31673    0.26274    1.000
    H54      H        0.91050    0.39270    0.25030    1.000
    C98      C        0.91129    0.23081    0.22122    1.000
    H55      H        0.90830    0.24930    0.18160    1.000
    C99      C        0.91477    0.11679    0.23845    1.000
    C100     C        0.91560    0.09415    0.29853    1.000
    H56      H        0.91570    0.01890    0.31220    1.000
    C101     C        0.91633    0.18503    0.33738    1.000
    H57      H        0.91710    0.16910    0.37730    1.000
    C102     C        0.92150    0.02312    0.19474    1.000
    C103     C        0.92786    0.04886    0.13493    1.000
    H58      H        0.92470    0.12450    0.12210    1.000
    C104     C        0.93874    0.96189    0.09538    1.000
    H59      H        0.94400    0.97890    0.05580    1.000
    C105     C        0.93531    0.82462    0.17008    1.000
    H60      H        0.93770    0.74790    0.18120    1.000
    C106     C        0.92517    0.90820    0.21182    1.000
    H61      H        0.92080    0.88820    0.25110    1.000
    C107     C        0.76182    0.90368    0.34712    1.000
    H62      H        0.76970    0.83600    0.36770    1.000
    C108     C        0.76282    0.90002    0.28634    1.000
    H63      H        0.77200    0.83150    0.26700    1.000
    C109     C        0.75994    0.89931    0.15696    1.000
    H64      H        0.76660    0.82990    0.17630    1.000
    C110     C        0.75989    0.90292    0.09632    1.000
    H65      H        0.76700    0.83500    0.07580    1.000
    Zn6      Zn       0.58241    0.57661    0.38168    1.000
    O41      O        0.57305    0.68257    0.46249    1.000
    O42      O        0.55825    0.66067    0.55953    1.000
    O43      O        0.59746    0.41549    0.33789    1.000
    O44      O        0.60072    0.22497    0.35396    1.000
    O45      O        0.68658    0.14096    0.47317    1.000
    O46      O        0.58076    0.07103    0.46914    1.000
    O47      O        0.63139    0.47699    0.63868    1.000
    O48      O        0.52137    0.44064    0.63793    1.000
    N21      N        0.58479    0.46036    0.44862    1.000
    N22      N        0.59457    0.30522    0.53819    1.000
    N23      N        0.58405    0.70498    0.32026    1.000
    N24      N        0.55826    0.14693    0.11355    1.000
    H66      H        0.55420    0.20570    0.08780    1.000
    C111     C        0.56981    0.62496    0.50919    1.000
    C112     C        0.57957    0.49638    0.50356    1.000
    C113     C        0.58325    0.41701    0.54940    1.000
    C114     C        0.57778    0.44974    0.61388    1.000
    C115     C        0.59803    0.32554    0.37018    1.000
    C116     C        0.59425    0.35067    0.43581    1.000
    C117     C        0.60044    0.27229    0.48184    1.000
    C118     C        0.62252    0.14889    0.47311    1.000
    C119     C        0.58766    0.68327    0.26274    1.000
    H67      H        0.58950    0.60730    0.25030    1.000
    C120     C        0.58871    0.76919    0.22122    1.000
    H68      H        0.59170    0.75070    0.18160    1.000
    C121     C        0.58523    0.88321    0.23845    1.000
    C122     C        0.58440    0.90585    0.29853    1.000
    H69      H        0.58430    0.98110    0.31220    1.000
    C123     C        0.58367    0.81497    0.33738    1.000
    H70      H        0.58290    0.83090    0.37730    1.000
    C124     C        0.57850    0.97688    0.19474    1.000
    C125     C        0.57214    0.95114    0.13493    1.000
    H71      H        0.57530    0.87550    0.12210    1.000
    C126     C        0.56126    0.03811    0.09538    1.000
    H72      H        0.55600    0.02110    0.05580    1.000
    C127     C        0.56469    0.17538    0.17008    1.000
    H73      H        0.56230    0.25210    0.18120    1.000
    C128     C        0.57483    0.09180    0.21182    1.000
    H74      H        0.57920    0.11180    0.25110    1.000
    C129     C        0.73818    0.09632    0.34712    1.000
    H75      H        0.73030    0.16400    0.36770    1.000
    C130     C        0.73718    0.09998    0.28634    1.000
    H76      H        0.72800    0.16850    0.26700    1.000
    C131     C        0.74006    0.10069    0.15696    1.000
    H77      H        0.73340    0.17010    0.17630    1.000
    C132     C        0.74011    0.09708    0.09632    1.000
    H78      H        0.73300    0.16500    0.07580    1.000
    Zn7      Zn       0.08241    0.42339    0.11832    1.000
    O49      O        0.07305    0.31743    0.03751    1.000
    O50      O        0.05825    0.33933    0.94047    1.000
    O51      O        0.09746    0.58451    0.16211    1.000
    O52      O        0.10072    0.77503    0.14604    1.000
    O53      O        0.18658    0.85904    0.02683    1.000
    O54      O        0.08076    0.92897    0.03086    1.000
    O55      O        0.13139    0.52301    0.86132    1.000
    O56      O        0.02137    0.55936    0.86207    1.000
    N25      N        0.08479    0.53964    0.05138    1.000
    N26      N        0.09457    0.69478    0.96181    1.000
    N27      N        0.08405    0.29502    0.17974    1.000
    N28      N        0.05826    0.85307    0.38645    1.000
    H79      H        0.05420    0.79430    0.41220    1.000
    C133     C        0.06981    0.37504    0.99081    1.000
    C134     C        0.07957    0.50362    0.99644    1.000
    C135     C        0.08325    0.58299    0.95060    1.000
    C136     C        0.07778    0.55026    0.88612    1.000
    C137     C        0.09803    0.67446    0.12982    1.000
    C138     C        0.09425    0.64933    0.06419    1.000
    C139     C        0.10044    0.72771    0.01816    1.000
    C140     C        0.12252    0.85111    0.02689    1.000
    C141     C        0.08766    0.31673    0.23726    1.000
    H80      H        0.08950    0.39270    0.24970    1.000
    C142     C        0.08871    0.23081    0.27878    1.000
    H81      H        0.09170    0.24930    0.31840    1.000
    C143     C        0.08523    0.11679    0.26155    1.000
    C144     C        0.08440    0.09415    0.20147    1.000
    H82      H        0.08430    0.01890    0.18780    1.000
    C145     C        0.08367    0.18503    0.16262    1.000
    H83      H        0.08290    0.16910    0.12270    1.000
    C146     C        0.07850    0.02312    0.30526    1.000
    C147     C        0.07214    0.04886    0.36507    1.000
    H84      H        0.07530    0.12450    0.37790    1.000
    C148     C        0.06126    0.96189    0.40462    1.000
    H85      H        0.05600    0.97890    0.44420    1.000
    C149     C        0.06469    0.82462    0.32992    1.000
    H86      H        0.06230    0.74790    0.31880    1.000
    C150     C        0.07483    0.90820    0.28818    1.000
    H87      H        0.07920    0.88820    0.24890    1.000
    C151     C        0.23818    0.90368    0.15288    1.000
    H88      H        0.23030    0.83600    0.13230    1.000
    C152     C        0.23718    0.90002    0.21366    1.000
    H89      H        0.22800    0.83150    0.23300    1.000
    C153     C        0.24006    0.89931    0.34304    1.000
    H90      H        0.23340    0.82990    0.32370    1.000
    C154     C        0.24011    0.90292    0.40368    1.000
    H91      H        0.23300    0.83500    0.42420    1.000
    Zn8      Zn       0.41759    0.57661    0.11832    1.000
    O57      O        0.42695    0.68257    0.03751    1.000
    O58      O        0.44175    0.66067    0.94047    1.000
    O59      O        0.40254    0.41549    0.16211    1.000
    O60      O        0.39928    0.22497    0.14604    1.000
    O61      O        0.31342    0.14096    0.02683    1.000
    O62      O        0.41924    0.07103    0.03086    1.000
    O63      O        0.36861    0.47699    0.86132    1.000
    O64      O        0.47863    0.44064    0.86207    1.000
    N29      N        0.41521    0.46036    0.05138    1.000
    N30      N        0.40543    0.30522    0.96181    1.000
    N31      N        0.41595    0.70498    0.17974    1.000
    N32      N        0.44174    0.14693    0.38645    1.000
    H92      H        0.44580    0.20570    0.41220    1.000
    C155     C        0.43019    0.62496    0.99081    1.000
    C156     C        0.42043    0.49638    0.99644    1.000
    C157     C        0.41675    0.41701    0.95060    1.000
    C158     C        0.42222    0.44974    0.88612    1.000
    C159     C        0.40197    0.32554    0.12982    1.000
    C160     C        0.40575    0.35067    0.06419    1.000
    C161     C        0.39956    0.27229    0.01816    1.000
    C162     C        0.37748    0.14889    0.02689    1.000
    C163     C        0.41234    0.68327    0.23726    1.000
    H93      H        0.41050    0.60730    0.24970    1.000
    C164     C        0.41129    0.76919    0.27878    1.000
    H94      H        0.40830    0.75070    0.31840    1.000
    C165     C        0.41477    0.88321    0.26155    1.000
    C166     C        0.41560    0.90585    0.20147    1.000
    H95      H        0.41570    0.98110    0.18780    1.000
    C167     C        0.41633    0.81497    0.16262    1.000
    H96      H        0.41710    0.83090    0.12270    1.000
    C168     C        0.42150    0.97688    0.30526    1.000
    C169     C        0.42786    0.95114    0.36507    1.000
    H97      H        0.42470    0.87550    0.37790    1.000
    C170     C        0.43874    0.03811    0.40462    1.000
    H98      H        0.44400    0.02110    0.44420    1.000
    C171     C        0.43531    0.17538    0.32992    1.000
    H99      H        0.43770    0.25210    0.31880    1.000
    C172     C        0.42517    0.09180    0.28818    1.000
    H100     H        0.42080    0.11180    0.24890    1.000
    C173     C        0.26182    0.09632    0.15288    1.000
    H101     H        0.26970    0.16400    0.13230    1.000
    C174     C        0.26282    0.09998    0.21366    1.000
    H102     H        0.27200    0.16850    0.23300    1.000
    C175     C        0.25994    0.10069    0.34304    1.000
    H103     H        0.26660    0.17010    0.32370    1.000
    C176     C        0.25989    0.09708    0.40368    1.000
    H104     H        0.26700    0.16500    0.42420    1.000
    Zn9      Zn       0.25000    0.00000    0.52911    1.000
    N33      N        0.25000    0.00000    0.62225    1.000
    N34      N        0.25000    0.00000    0.93419    1.000
    C177     C        0.25000    0.00000    0.74548    1.000
    C178     C        0.25000    0.00000    0.81083    1.000
    Zn10     Zn       0.75000    0.00000    0.97089    1.000
    N35      N        0.75000    0.00000    0.87775    1.000
    N36      N        0.75000    0.00000    0.56581    1.000
    C179     C        0.75000    0.00000    0.75452    1.000
    C180     C        0.75000    0.00000    0.68917    1.000
    Zn11     Zn       0.75000    0.00000    0.47089    1.000
    N37      N        0.75000    0.00000    0.37775    1.000
    N38      N        0.75000    0.00000    0.06581    1.000
    C181     C        0.75000    0.00000    0.25452    1.000
    C182     C        0.75000    0.00000    0.18917    1.000
    Zn12     Zn       0.25000    0.00000    0.02911    1.000
    N39      N        0.25000    0.00000    0.12225    1.000
    N40      N        0.25000    0.00000    0.43419    1.000
    C183     C        0.25000    0.00000    0.24548    1.000
    C184     C        0.25000    0.00000    0.31083    1.000
