# CIF file generated by openbabel 3.1.0, see https://openbabel.org
data_I
_chemical_name_common 'image0'
_cell_length_a 16.202
_cell_length_b 22.691
_cell_length_c 16.772
_cell_angle_alpha 90
_cell_angle_beta 114.511
_cell_angle_gamma 90
_space_group_name_H-M_alt 'P 1'
_space_group_name_Hall 'P 1'
loop_
    _symmetry_equiv_pos_as_xyz
    x,y,z
loop_
    _atom_site_label
    _atom_site_type_symbol
    _atom_site_fract_x
    _atom_site_fract_y
    _atom_site_fract_z
    _atom_site_occupancy
    Cd1      Cd       0.77929    0.76515    0.62372    1.000
    S1       S        0.67786    0.97633    0.07891    1.000
    S2       S        0.64445    0.00623    0.95691    1.000
    O1       O        0.70810    0.83130    0.67160    1.000
    O2       O        0.81140    0.79040    0.79190    1.000
    O3       O        0.40110    0.79760    0.15860    1.000
    O4       O        0.32990    0.79180    0.01610    1.000
    N1       N        0.87270    0.84240    0.61890    1.000
    N2       N        0.18950    0.18760    0.62590    1.000
    N3       N        0.73550    0.90860    0.94620    1.000
    N4       N        0.52260    0.91020    0.99460    1.000
    C1       C        0.59800    0.90720    0.14820    1.000
    H1       H        0.64590    0.91930    0.19950    1.000
    C2       C        0.74890    0.82720    0.75030    1.000
    C3       C        0.39270    0.81080    0.08230    1.000
    C4       C        0.72710    0.87130    0.81000    1.000
    C5       C        0.67470    0.92020    0.77290    1.000
    H2       H        0.65340    0.92660    0.71290    1.000
    C6       C        0.65400    0.95900    0.82320    1.000
    H3       H        0.61840    0.99150    0.79650    1.000
    C7       C        0.68050    0.95290    0.90250    1.000
    C8       C        0.75850    0.86870    0.89820    1.000
    H4       H        0.79770    0.83820    0.92760    1.000
    C9       C        0.46330    0.85110    0.07690    1.000
    C10      C        0.45780    0.87170    0.99940    1.000
    H5       H        0.40970    0.85990    0.94800    1.000
    C11      C        0.59010    0.92690    0.07100    1.000
    C12      C        0.53640    0.86970    0.15110    1.000
    H6       H        0.54270    0.85540    0.20530    1.000
    C13      C        0.83850    0.89570    0.60070    1.000
    H7       H        0.77660    0.90040    0.58480    1.000
    C14      C        0.88940    0.94510    0.60380    1.000
    H8       H        0.86250    0.98210    0.59190    1.000
    C15      C        0.97930    0.93870    0.62460    1.000
    C16      C        0.01350    0.88280    0.64220    1.000
    H9       H        0.07490    0.87650    0.65700    1.000
    C17      C        0.95960    0.83670    0.63820    1.000
    H10      H        0.98500    0.79920    0.64970    1.000
    C18      C        0.04350    0.99180    0.64690    1.000
    H11      H        0.10030    0.99050    0.69370    1.000
    C19      C        0.07730    0.09260    0.61890    1.000
    C20      C        0.03680    0.14510    0.57500    1.000
    H12      H        0.97440    0.14830    0.54260    1.000
    C21      C        0.22410    0.13800    0.66620    1.000
    H13      H        0.28680    0.13560    0.69650    1.000
    C22      C        0.09590    0.19240    0.58290    1.000
    H14      H        0.07110    0.22850    0.55820    1.000
    C23      C        0.17250    0.08850    0.66650    1.000
    H15      H        0.19970    0.05430    0.69670    1.000
    C24      C        0.01470    0.04160    0.59580    1.000
    H16      H        0.95810    0.04320    0.54870    1.000
    C25      C        0.53390    0.48690    0.61000    1.000
    C26      C        0.71960    0.63100    0.62690    1.000
    C27      C        0.66320    0.58320    0.62340    1.000
    C28      C        0.55040    0.64940    0.61810    1.000
    C29      C        0.60760    0.69730    0.62210    1.000
    C30      C        0.52060    0.54300    0.63300    1.000
    H17      H        0.57550    0.47930    0.58620    1.000
    H18      H        0.77740    0.62420    0.62990    1.000
    H19      H        0.68390    0.54490    0.62420    1.000
    H20      H        0.49260    0.65700    0.61480    1.000
    H21      H        0.58760    0.73570    0.62200    1.000
    H22      H        0.47870    0.55060    0.65640    1.000
    Cd2      Cd       0.27929    0.26515    0.62372    1.000
    S3       S        0.17786    0.47633    0.07891    1.000
    S4       S        0.14445    0.50623    0.95691    1.000
    O5       O        0.20810    0.33130    0.67160    1.000
    O6       O        0.31140    0.29040    0.79190    1.000
    O7       O        0.90110    0.29760    0.15860    1.000
    O8       O        0.82990    0.29180    0.01610    1.000
    N5       N        0.37270    0.34240    0.61890    1.000
    N6       N        0.68950    0.68760    0.62590    1.000
    N7       N        0.23550    0.40860    0.94620    1.000
    N8       N        0.02260    0.41020    0.99460    1.000
    C31      C        0.09800    0.40720    0.14820    1.000
    H23      H        0.14590    0.41930    0.19950    1.000
    C32      C        0.24890    0.32720    0.75030    1.000
    C33      C        0.89270    0.31080    0.08230    1.000
    C34      C        0.22710    0.37130    0.81000    1.000
    C35      C        0.17470    0.42020    0.77290    1.000
    H24      H        0.15340    0.42660    0.71290    1.000
    C36      C        0.15400    0.45900    0.82320    1.000
    H25      H        0.11840    0.49150    0.79650    1.000
    C37      C        0.18050    0.45290    0.90250    1.000
    C38      C        0.25850    0.36870    0.89820    1.000
    H26      H        0.29770    0.33820    0.92760    1.000
    C39      C        0.96330    0.35110    0.07690    1.000
    C40      C        0.95780    0.37170    0.99940    1.000
    H27      H        0.90970    0.35990    0.94800    1.000
    C41      C        0.09010    0.42690    0.07100    1.000
    C42      C        0.03640    0.36970    0.15110    1.000
    H28      H        0.04270    0.35540    0.20530    1.000
    C43      C        0.33850    0.39570    0.60070    1.000
    H29      H        0.27660    0.40040    0.58480    1.000
    C44      C        0.38940    0.44510    0.60380    1.000
    H30      H        0.36250    0.48210    0.59190    1.000
    C45      C        0.47930    0.43870    0.62460    1.000
    C46      C        0.51350    0.38280    0.64220    1.000
    H31      H        0.57490    0.37650    0.65700    1.000
    C47      C        0.45960    0.33670    0.63820    1.000
    H32      H        0.48500    0.29920    0.64970    1.000
    C48      C        0.54350    0.49180    0.64690    1.000
    H33      H        0.60030    0.49050    0.69370    1.000
    C49      C        0.57730    0.59260    0.61890    1.000
    C50      C        0.53680    0.64510    0.57500    1.000
    H34      H        0.47440    0.64830    0.54260    1.000
    C51      C        0.72410    0.63800    0.66620    1.000
    H35      H        0.78680    0.63560    0.69650    1.000
    C52      C        0.59590    0.69240    0.58290    1.000
    H36      H        0.57110    0.72850    0.55820    1.000
    C53      C        0.67250    0.58850    0.66650    1.000
    H37      H        0.69970    0.55430    0.69670    1.000
    C54      C        0.51470    0.54160    0.59580    1.000
    H38      H        0.45810    0.54320    0.54870    1.000
    C55      C        0.03390    0.98690    0.61000    1.000
    C56      C        0.21960    0.13100    0.62690    1.000
    C57      C        0.16320    0.08320    0.62340    1.000
    C58      C        0.05040    0.14940    0.61810    1.000
    C59      C        0.10760    0.19730    0.62210    1.000
    C60      C        0.02060    0.04300    0.63300    1.000
    H39      H        0.07550    0.97930    0.58620    1.000
    H40      H        0.27740    0.12420    0.62990    1.000
    H41      H        0.18390    0.04490    0.62420    1.000
    H42      H        0.99260    0.15700    0.61480    1.000
    H43      H        0.08760    0.23570    0.62200    1.000
    H44      H        0.97870    0.05060    0.65640    1.000
    Cd3      Cd       0.22071    0.76515    0.87628    1.000
    S5       S        0.32214    0.97633    0.42109    1.000
    S6       S        0.35555    0.00623    0.54309    1.000
    O9       O        0.29190    0.83130    0.82840    1.000
    O10      O        0.18860    0.79040    0.70810    1.000
    O11      O        0.59890    0.79760    0.34140    1.000
    O12      O        0.67010    0.79180    0.48390    1.000
    N9       N        0.12730    0.84240    0.88110    1.000
    N10      N        0.81050    0.18760    0.87410    1.000
    N11      N        0.26450    0.90860    0.55380    1.000
    N12      N        0.47740    0.91020    0.50540    1.000
    C61      C        0.40200    0.90720    0.35180    1.000
    H45      H        0.35410    0.91930    0.30050    1.000
    C62      C        0.25110    0.82720    0.74970    1.000
    C63      C        0.60730    0.81080    0.41770    1.000
    C64      C        0.27290    0.87130    0.69000    1.000
    C65      C        0.32530    0.92020    0.72710    1.000
    H46      H        0.34660    0.92660    0.78710    1.000
    C66      C        0.34600    0.95900    0.67680    1.000
    H47      H        0.38160    0.99150    0.70350    1.000
    C67      C        0.31950    0.95290    0.59750    1.000
    C68      C        0.24150    0.86870    0.60180    1.000
    H48      H        0.20230    0.83820    0.57240    1.000
    C69      C        0.53670    0.85110    0.42310    1.000
    C70      C        0.54220    0.87170    0.50060    1.000
    H49      H        0.59030    0.85990    0.55200    1.000
    C71      C        0.40990    0.92690    0.42900    1.000
    C72      C        0.46360    0.86970    0.34890    1.000
    H50      H        0.45730    0.85540    0.29470    1.000
    C73      C        0.16150    0.89570    0.89930    1.000
    H51      H        0.22340    0.90040    0.91520    1.000
    C74      C        0.11060    0.94510    0.89620    1.000
    H52      H        0.13750    0.98210    0.90810    1.000
    C75      C        0.02070    0.93870    0.87540    1.000
    C76      C        0.98650    0.88280    0.85780    1.000
    H53      H        0.92510    0.87650    0.84300    1.000
    C77      C        0.04040    0.83670    0.86180    1.000
    H54      H        0.01500    0.79920    0.85030    1.000
    C78      C        0.95650    0.99180    0.85310    1.000
    H55      H        0.89970    0.99050    0.80630    1.000
    C79      C        0.92270    0.09260    0.88110    1.000
    C80      C        0.96320    0.14510    0.92500    1.000
    H56      H        0.02560    0.14830    0.95740    1.000
    C81      C        0.77590    0.13800    0.83380    1.000
    H57      H        0.71320    0.13560    0.80350    1.000
    C82      C        0.90410    0.19240    0.91710    1.000
    H58      H        0.92890    0.22850    0.94180    1.000
    C83      C        0.82750    0.08850    0.83350    1.000
    H59      H        0.80030    0.05430    0.80330    1.000
    C84      C        0.98530    0.04160    0.90420    1.000
    H60      H        0.04190    0.04320    0.95130    1.000
    C85      C        0.46610    0.48690    0.89000    1.000
    C86      C        0.28040    0.63100    0.87310    1.000
    C87      C        0.33680    0.58320    0.87660    1.000
    C88      C        0.44960    0.64940    0.88190    1.000
    C89      C        0.39240    0.69730    0.87790    1.000
    C90      C        0.47940    0.54300    0.86700    1.000
    H61      H        0.42450    0.47930    0.91380    1.000
    H62      H        0.22260    0.62420    0.87010    1.000
    H63      H        0.31610    0.54490    0.87580    1.000
    H64      H        0.50740    0.65700    0.88520    1.000
    H65      H        0.41240    0.73570    0.87800    1.000
    H66      H        0.52130    0.55060    0.84360    1.000
    Cd4      Cd       0.72071    0.26515    0.87628    1.000
    S7       S        0.82214    0.47633    0.42109    1.000
    S8       S        0.85555    0.50623    0.54309    1.000
    O13      O        0.79190    0.33130    0.82840    1.000
    O14      O        0.68860    0.29040    0.70810    1.000
    O15      O        0.09890    0.29760    0.34140    1.000
    O16      O        0.17010    0.29180    0.48390    1.000
    N13      N        0.62730    0.34240    0.88110    1.000
    N14      N        0.31050    0.68760    0.87410    1.000
    N15      N        0.76450    0.40860    0.55380    1.000
    N16      N        0.97740    0.41020    0.50540    1.000
    C91      C        0.90200    0.40720    0.35180    1.000
    H67      H        0.85410    0.41930    0.30050    1.000
    C92      C        0.75110    0.32720    0.74970    1.000
    C93      C        0.10730    0.31080    0.41770    1.000
    C94      C        0.77290    0.37130    0.69000    1.000
    C95      C        0.82530    0.42020    0.72710    1.000
    H68      H        0.84660    0.42660    0.78710    1.000
    C96      C        0.84600    0.45900    0.67680    1.000
    H69      H        0.88160    0.49150    0.70350    1.000
    C97      C        0.81950    0.45290    0.59750    1.000
    C98      C        0.74150    0.36870    0.60180    1.000
    H70      H        0.70230    0.33820    0.57240    1.000
    C99      C        0.03670    0.35110    0.42310    1.000
    C100     C        0.04220    0.37170    0.50060    1.000
    H71      H        0.09030    0.35990    0.55200    1.000
    C101     C        0.90990    0.42690    0.42900    1.000
    C102     C        0.96360    0.36970    0.34890    1.000
    H72      H        0.95730    0.35540    0.29470    1.000
    C103     C        0.66150    0.39570    0.89930    1.000
    H73      H        0.72340    0.40040    0.91520    1.000
    C104     C        0.61060    0.44510    0.89620    1.000
    H74      H        0.63750    0.48210    0.90810    1.000
    C105     C        0.52070    0.43870    0.87540    1.000
    C106     C        0.48650    0.38280    0.85780    1.000
    H75      H        0.42510    0.37650    0.84300    1.000
    C107     C        0.54040    0.33670    0.86180    1.000
    H76      H        0.51500    0.29920    0.85030    1.000
    C108     C        0.45650    0.49180    0.85310    1.000
    H77      H        0.39970    0.49050    0.80630    1.000
    C109     C        0.42270    0.59260    0.88110    1.000
    C110     C        0.46320    0.64510    0.92500    1.000
    H78      H        0.52560    0.64830    0.95740    1.000
    C111     C        0.27590    0.63800    0.83380    1.000
    H79      H        0.21320    0.63560    0.80350    1.000
    C112     C        0.40410    0.69240    0.91710    1.000
    H80      H        0.42890    0.72850    0.94180    1.000
    C113     C        0.32750    0.58850    0.83350    1.000
    H81      H        0.30030    0.55430    0.80330    1.000
    C114     C        0.48530    0.54160    0.90420    1.000
    H82      H        0.54190    0.54320    0.95130    1.000
    C115     C        0.96610    0.98690    0.89000    1.000
    C116     C        0.78040    0.13100    0.87310    1.000
    C117     C        0.83680    0.08320    0.87660    1.000
    C118     C        0.94960    0.14940    0.88190    1.000
    C119     C        0.89240    0.19730    0.87790    1.000
    C120     C        0.97940    0.04300    0.86700    1.000
    H83      H        0.92450    0.97930    0.91380    1.000
    H84      H        0.72260    0.12420    0.87010    1.000
    H85      H        0.81610    0.04490    0.87580    1.000
    H86      H        0.00740    0.15700    0.88520    1.000
    H87      H        0.91240    0.23570    0.87800    1.000
    H88      H        0.02130    0.05060    0.84360    1.000
    Cd5      Cd       0.22071    0.23485    0.37628    1.000
    S9       S        0.32214    0.02367    0.92109    1.000
    S10      S        0.35555    0.99377    0.04309    1.000
    O17      O        0.29190    0.16870    0.32840    1.000
    O18      O        0.18860    0.20960    0.20810    1.000
    O19      O        0.59890    0.20240    0.84140    1.000
    O20      O        0.67010    0.20820    0.98390    1.000
    N17      N        0.12730    0.15760    0.38110    1.000
    N18      N        0.81050    0.81240    0.37410    1.000
    N19      N        0.26450    0.09140    0.05380    1.000
    N20      N        0.47740    0.08980    0.00540    1.000
    C121     C        0.40200    0.09280    0.85180    1.000
    H89      H        0.35410    0.08070    0.80050    1.000
    C122     C        0.25110    0.17280    0.24970    1.000
    C123     C        0.60730    0.18920    0.91770    1.000
    C124     C        0.27290    0.12870    0.19000    1.000
    C125     C        0.32530    0.07980    0.22710    1.000
    H90      H        0.34660    0.07340    0.28710    1.000
    C126     C        0.34600    0.04100    0.17680    1.000
    H91      H        0.38160    0.00850    0.20350    1.000
    C127     C        0.31950    0.04710    0.09750    1.000
    C128     C        0.24150    0.13130    0.10180    1.000
    H92      H        0.20230    0.16180    0.07240    1.000
    C129     C        0.53670    0.14890    0.92310    1.000
    C130     C        0.54220    0.12830    0.00060    1.000
    H93      H        0.59030    0.14010    0.05200    1.000
    C131     C        0.40990    0.07310    0.92900    1.000
    C132     C        0.46360    0.13030    0.84890    1.000
    H94      H        0.45730    0.14460    0.79470    1.000
    C133     C        0.16150    0.10430    0.39930    1.000
    H95      H        0.22340    0.09960    0.41520    1.000
    C134     C        0.11060    0.05490    0.39620    1.000
    H96      H        0.13750    0.01790    0.40810    1.000
    C135     C        0.02070    0.06130    0.37540    1.000
    C136     C        0.98650    0.11720    0.35780    1.000
    H97      H        0.92510    0.12350    0.34300    1.000
    C137     C        0.04040    0.16330    0.36180    1.000
    H98      H        0.01500    0.20080    0.35030    1.000
    C138     C        0.95650    0.00820    0.35310    1.000
    H99      H        0.89970    0.00950    0.30630    1.000
    C139     C        0.92270    0.90740    0.38110    1.000
    C140     C        0.96320    0.85490    0.42500    1.000
    H100     H        0.02560    0.85170    0.45740    1.000
    C141     C        0.77590    0.86200    0.33380    1.000
    H101     H        0.71320    0.86440    0.30350    1.000
    C142     C        0.90410    0.80760    0.41710    1.000
    H102     H        0.92890    0.77150    0.44180    1.000
    C143     C        0.82750    0.91150    0.33350    1.000
    H103     H        0.80030    0.94570    0.30330    1.000
    C144     C        0.98530    0.95840    0.40420    1.000
    H104     H        0.04190    0.95680    0.45130    1.000
    C145     C        0.46610    0.51310    0.39000    1.000
    C146     C        0.28040    0.36900    0.37310    1.000
    C147     C        0.33680    0.41680    0.37660    1.000
    C148     C        0.44960    0.35060    0.38190    1.000
    C149     C        0.39240    0.30270    0.37790    1.000
    C150     C        0.47940    0.45700    0.36700    1.000
    H105     H        0.42450    0.52070    0.41380    1.000
    H106     H        0.22260    0.37580    0.37010    1.000
    H107     H        0.31610    0.45510    0.37580    1.000
    H108     H        0.50740    0.34300    0.38520    1.000
    H109     H        0.41240    0.26430    0.37800    1.000
    H110     H        0.52130    0.44940    0.34360    1.000
    Cd6      Cd       0.72071    0.73485    0.37628    1.000
    S11      S        0.82214    0.52367    0.92109    1.000
    S12      S        0.85555    0.49377    0.04309    1.000
    O21      O        0.79190    0.66870    0.32840    1.000
    O22      O        0.68860    0.70960    0.20810    1.000
    O23      O        0.09890    0.70240    0.84140    1.000
    O24      O        0.17010    0.70820    0.98390    1.000
    N21      N        0.62730    0.65760    0.38110    1.000
    N22      N        0.31050    0.31240    0.37410    1.000
    N23      N        0.76450    0.59140    0.05380    1.000
    N24      N        0.97740    0.58980    0.00540    1.000
    C151     C        0.90200    0.59280    0.85180    1.000
    H111     H        0.85410    0.58070    0.80050    1.000
    C152     C        0.75110    0.67280    0.24970    1.000
    C153     C        0.10730    0.68920    0.91770    1.000
    C154     C        0.77290    0.62870    0.19000    1.000
    C155     C        0.82530    0.57980    0.22710    1.000
    H112     H        0.84660    0.57340    0.28710    1.000
    C156     C        0.84600    0.54100    0.17680    1.000
    H113     H        0.88160    0.50850    0.20350    1.000
    C157     C        0.81950    0.54710    0.09750    1.000
    C158     C        0.74150    0.63130    0.10180    1.000
    H114     H        0.70230    0.66180    0.07240    1.000
    C159     C        0.03670    0.64890    0.92310    1.000
    C160     C        0.04220    0.62830    0.00060    1.000
    H115     H        0.09030    0.64010    0.05200    1.000
    C161     C        0.90990    0.57310    0.92900    1.000
    C162     C        0.96360    0.63030    0.84890    1.000
    H116     H        0.95730    0.64460    0.79470    1.000
    C163     C        0.66150    0.60430    0.39930    1.000
    H117     H        0.72340    0.59960    0.41520    1.000
    C164     C        0.61060    0.55490    0.39620    1.000
    H118     H        0.63750    0.51790    0.40810    1.000
    C165     C        0.52070    0.56130    0.37540    1.000
    C166     C        0.48650    0.61720    0.35780    1.000
    H119     H        0.42510    0.62350    0.34300    1.000
    C167     C        0.54040    0.66330    0.36180    1.000
    H120     H        0.51500    0.70080    0.35030    1.000
    C168     C        0.45650    0.50820    0.35310    1.000
    H121     H        0.39970    0.50950    0.30630    1.000
    C169     C        0.42270    0.40740    0.38110    1.000
    C170     C        0.46320    0.35490    0.42500    1.000
    H122     H        0.52560    0.35170    0.45740    1.000
    C171     C        0.27590    0.36200    0.33380    1.000
    H123     H        0.21320    0.36440    0.30350    1.000
    C172     C        0.40410    0.30760    0.41710    1.000
    H124     H        0.42890    0.27150    0.44180    1.000
    C173     C        0.32750    0.41150    0.33350    1.000
    H125     H        0.30030    0.44570    0.30330    1.000
    C174     C        0.48530    0.45840    0.40420    1.000
    H126     H        0.54190    0.45680    0.45130    1.000
    C175     C        0.96610    0.01310    0.39000    1.000
    C176     C        0.78040    0.86900    0.37310    1.000
    C177     C        0.83680    0.91680    0.37660    1.000
    C178     C        0.94960    0.85060    0.38190    1.000
    C179     C        0.89240    0.80270    0.37790    1.000
    C180     C        0.97940    0.95700    0.36700    1.000
    H127     H        0.92450    0.02070    0.41380    1.000
    H128     H        0.72260    0.87580    0.37010    1.000
    H129     H        0.81610    0.95510    0.37580    1.000
    H130     H        0.00740    0.84300    0.38520    1.000
    H131     H        0.91240    0.76430    0.37800    1.000
    H132     H        0.02130    0.94940    0.34360    1.000
    Cd7      Cd       0.77929    0.23485    0.12372    1.000
    S13      S        0.67786    0.02367    0.57891    1.000
    S14      S        0.64445    0.99377    0.45691    1.000
    O25      O        0.70810    0.16870    0.17160    1.000
    O26      O        0.81140    0.20960    0.29190    1.000
    O27      O        0.40110    0.20240    0.65860    1.000
    O28      O        0.32990    0.20820    0.51610    1.000
    N25      N        0.87270    0.15760    0.11890    1.000
    N26      N        0.18950    0.81240    0.12590    1.000
    N27      N        0.73550    0.09140    0.44620    1.000
    N28      N        0.52260    0.08980    0.49460    1.000
    C181     C        0.59800    0.09280    0.64820    1.000
    H133     H        0.64590    0.08070    0.69950    1.000
    C182     C        0.74890    0.17280    0.25030    1.000
    C183     C        0.39270    0.18920    0.58230    1.000
    C184     C        0.72710    0.12870    0.31000    1.000
    C185     C        0.67470    0.07980    0.27290    1.000
    H134     H        0.65340    0.07340    0.21290    1.000
    C186     C        0.65400    0.04100    0.32320    1.000
    H135     H        0.61840    0.00850    0.29650    1.000
    C187     C        0.68050    0.04710    0.40250    1.000
    C188     C        0.75850    0.13130    0.39820    1.000
    H136     H        0.79770    0.16180    0.42760    1.000
    C189     C        0.46330    0.14890    0.57690    1.000
    C190     C        0.45780    0.12830    0.49940    1.000
    H137     H        0.40970    0.14010    0.44800    1.000
    C191     C        0.59010    0.07310    0.57100    1.000
    C192     C        0.53640    0.13030    0.65110    1.000
    H138     H        0.54270    0.14460    0.70530    1.000
    C193     C        0.83850    0.10430    0.10070    1.000
    H139     H        0.77660    0.09960    0.08480    1.000
    C194     C        0.88940    0.05490    0.10380    1.000
    H140     H        0.86250    0.01790    0.09190    1.000
    C195     C        0.97930    0.06130    0.12460    1.000
    C196     C        0.01350    0.11720    0.14220    1.000
    H141     H        0.07490    0.12350    0.15700    1.000
    C197     C        0.95960    0.16330    0.13820    1.000
    H142     H        0.98500    0.20080    0.14970    1.000
    C198     C        0.04350    0.00820    0.14690    1.000
    H143     H        0.10030    0.00950    0.19370    1.000
    C199     C        0.07730    0.90740    0.11890    1.000
    C200     C        0.03680    0.85490    0.07500    1.000
    H144     H        0.97440    0.85170    0.04260    1.000
    C201     C        0.22410    0.86200    0.16620    1.000
    H145     H        0.28680    0.86440    0.19650    1.000
    C202     C        0.09590    0.80760    0.08290    1.000
    H146     H        0.07110    0.77150    0.05820    1.000
    C203     C        0.17250    0.91150    0.16650    1.000
    H147     H        0.19970    0.94570    0.19670    1.000
    C204     C        0.01470    0.95840    0.09580    1.000
    H148     H        0.95810    0.95680    0.04870    1.000
    C205     C        0.53390    0.51310    0.11000    1.000
    C206     C        0.71960    0.36900    0.12690    1.000
    C207     C        0.66320    0.41680    0.12340    1.000
    C208     C        0.55040    0.35060    0.11810    1.000
    C209     C        0.60760    0.30270    0.12210    1.000
    C210     C        0.52060    0.45700    0.13300    1.000
    H149     H        0.57550    0.52070    0.08620    1.000
    H150     H        0.77740    0.37580    0.12990    1.000
    H151     H        0.68390    0.45510    0.12420    1.000
    H152     H        0.49260    0.34300    0.11480    1.000
    H153     H        0.58760    0.26430    0.12200    1.000
    H154     H        0.47870    0.44940    0.15640    1.000
    Cd8      Cd       0.27929    0.73485    0.12372    1.000
    S15      S        0.17786    0.52367    0.57891    1.000
    S16      S        0.14445    0.49377    0.45691    1.000
    O29      O        0.20810    0.66870    0.17160    1.000
    O30      O        0.31140    0.70960    0.29190    1.000
    O31      O        0.90110    0.70240    0.65860    1.000
    O32      O        0.82990    0.70820    0.51610    1.000
    N29      N        0.37270    0.65760    0.11890    1.000
    N30      N        0.68950    0.31240    0.12590    1.000
    N31      N        0.23550    0.59140    0.44620    1.000
    N32      N        0.02260    0.58980    0.49460    1.000
    C211     C        0.09800    0.59280    0.64820    1.000
    H155     H        0.14590    0.58070    0.69950    1.000
    C212     C        0.24890    0.67280    0.25030    1.000
    C213     C        0.89270    0.68920    0.58230    1.000
    C214     C        0.22710    0.62870    0.31000    1.000
    C215     C        0.17470    0.57980    0.27290    1.000
    H156     H        0.15340    0.57340    0.21290    1.000
    C216     C        0.15400    0.54100    0.32320    1.000
    H157     H        0.11840    0.50850    0.29650    1.000
    C217     C        0.18050    0.54710    0.40250    1.000
    C218     C        0.25850    0.63130    0.39820    1.000
    H158     H        0.29770    0.66180    0.42760    1.000
    C219     C        0.96330    0.64890    0.57690    1.000
    C220     C        0.95780    0.62830    0.49940    1.000
    H159     H        0.90970    0.64010    0.44800    1.000
    C221     C        0.09010    0.57310    0.57100    1.000
    C222     C        0.03640    0.63030    0.65110    1.000
    H160     H        0.04270    0.64460    0.70530    1.000
    C223     C        0.33850    0.60430    0.10070    1.000
    H161     H        0.27660    0.59960    0.08480    1.000
    C224     C        0.38940    0.55490    0.10380    1.000
    H162     H        0.36250    0.51790    0.09190    1.000
    C225     C        0.47930    0.56130    0.12460    1.000
    C226     C        0.51350    0.61720    0.14220    1.000
    H163     H        0.57490    0.62350    0.15700    1.000
    C227     C        0.45960    0.66330    0.13820    1.000
    H164     H        0.48500    0.70080    0.14970    1.000
    C228     C        0.54350    0.50820    0.14690    1.000
    H165     H        0.60030    0.50950    0.19370    1.000
    C229     C        0.57730    0.40740    0.11890    1.000
    C230     C        0.53680    0.35490    0.07500    1.000
    H166     H        0.47440    0.35170    0.04260    1.000
    C231     C        0.72410    0.36200    0.16620    1.000
    H167     H        0.78680    0.36440    0.19650    1.000
    C232     C        0.59590    0.30760    0.08290    1.000
    H168     H        0.57110    0.27150    0.05820    1.000
    C233     C        0.67250    0.41150    0.16650    1.000
    H169     H        0.69970    0.44570    0.19670    1.000
    C234     C        0.51470    0.45840    0.09580    1.000
    H170     H        0.45810    0.45680    0.04870    1.000
    C235     C        0.03390    0.01310    0.11000    1.000
    C236     C        0.21960    0.86900    0.12690    1.000
    C237     C        0.16320    0.91680    0.12340    1.000
    C238     C        0.05040    0.85060    0.11810    1.000
    C239     C        0.10760    0.80270    0.12210    1.000
    C240     C        0.02060    0.95700    0.13300    1.000
    H171     H        0.07550    0.02070    0.08620    1.000
    H172     H        0.27740    0.87580    0.12990    1.000
    H173     H        0.18390    0.95510    0.12420    1.000
    H174     H        0.99260    0.84300    0.11480    1.000
    H175     H        0.08760    0.76430    0.12200    1.000
    H176     H        0.97870    0.94940    0.15640    1.000
