# CIF file generated by openbabel 3.1.0, see https://openbabel.org
data_I
_chemical_name_common 'image0'
_cell_length_a 12.3275
_cell_length_b 12.3275
_cell_length_c 12.5415
_cell_angle_alpha 90
_cell_angle_beta 90
_cell_angle_gamma 120
_space_group_name_H-M_alt 'P 1'
_space_group_name_Hall 'P 1'
loop_
    _symmetry_equiv_pos_as_xyz
    x,y,z
loop_
    _atom_site_label
    _atom_site_type_symbol
    _atom_site_fract_x
    _atom_site_fract_y
    _atom_site_fract_z
    _atom_site_occupancy
    N1       N        0.35110    0.22670    0.09320    1.000
    N2       N        0.44580    0.30890    0.03260    1.000
    N3       N        0.50300    0.25050    0.99650    1.000
    N4       N        0.44670    0.13380    0.03300    1.000
    N5       N        0.52740    0.47350    0.83610    1.000
    N6       N        0.58790    0.41260    0.80160    1.000
    C1       C        0.35150    0.12050    0.09280    1.000
    H1       H        0.29470    0.04780    0.12850    1.000
    N7       N        0.77330    0.12440    0.09320    1.000
    N8       N        0.69110    0.13690    0.03260    1.000
    N9       N        0.74950    0.25250    0.99650    1.000
    N10      N        0.86620    0.31290    0.03300    1.000
    N11      N        0.52650    0.05390    0.83610    1.000
    N12      N        0.58740    0.17530    0.80160    1.000
    C2       C        0.87950    0.23100    0.09280    1.000
    H2       H        0.95220    0.24690    0.12850    1.000
    N13      N        0.87560    0.64890    0.09320    1.000
    N14      N        0.86310    0.55420    0.03260    1.000
    N15      N        0.74750    0.49700    0.99650    1.000
    N16      N        0.68710    0.55330    0.03300    1.000
    N17      N        0.94610    0.47260    0.83610    1.000
    N18      N        0.82470    0.41210    0.80160    1.000
    C3       C        0.76900    0.64850    0.09280    1.000
    H3       H        0.75310    0.70530    0.12850    1.000
    N19      N        0.77330    0.64890    0.40680    1.000
    N20      N        0.69110    0.55420    0.46740    1.000
    N21      N        0.74950    0.49700    0.50350    1.000
    N22      N        0.86620    0.55330    0.46700    1.000
    N23      N        0.52650    0.47260    0.66390    1.000
    N24      N        0.58740    0.41210    0.69840    1.000
    C4       C        0.87950    0.64850    0.40720    1.000
    H4       H        0.95220    0.70530    0.37150    1.000
    N25      N        0.87560    0.22670    0.40680    1.000
    N26      N        0.86310    0.30890    0.46740    1.000
    N27      N        0.74750    0.25050    0.50350    1.000
    N28      N        0.68710    0.13380    0.46700    1.000
    N29      N        0.94610    0.47350    0.66390    1.000
    N30      N        0.82470    0.41260    0.69840    1.000
    C5       C        0.76900    0.12050    0.40720    1.000
    H5       H        0.75310    0.04780    0.37150    1.000
    N31      N        0.35110    0.12440    0.40680    1.000
    N32      N        0.44580    0.13690    0.46740    1.000
    N33      N        0.50300    0.25250    0.50350    1.000
    N34      N        0.44670    0.31290    0.46700    1.000
    N35      N        0.52740    0.05390    0.66390    1.000
    N36      N        0.58790    0.17530    0.69840    1.000
    C6       C        0.35150    0.23100    0.40720    1.000
    H6       H        0.29470    0.24690    0.37150    1.000
    N37      N        0.64890    0.77330    0.90680    1.000
    N38      N        0.55420    0.69110    0.96740    1.000
    N39      N        0.49700    0.74950    0.00350    1.000
    N40      N        0.55330    0.86620    0.96700    1.000
    N41      N        0.47260    0.52650    0.16390    1.000
    N42      N        0.41210    0.58740    0.19840    1.000
    C7       C        0.64850    0.87950    0.90720    1.000
    H7       H        0.70530    0.95220    0.87150    1.000
    N43      N        0.22670    0.87560    0.90680    1.000
    N44      N        0.30890    0.86310    0.96740    1.000
    N45      N        0.25050    0.74750    0.00350    1.000
    N46      N        0.13380    0.68710    0.96700    1.000
    N47      N        0.47350    0.94610    0.16390    1.000
    N48      N        0.41260    0.82470    0.19840    1.000
    C8       C        0.12050    0.76900    0.90720    1.000
    H8       H        0.04780    0.75310    0.87150    1.000
    N49      N        0.12440    0.35110    0.90680    1.000
    N50      N        0.13690    0.44580    0.96740    1.000
    N51      N        0.25250    0.50300    0.00350    1.000
    N52      N        0.31290    0.44670    0.96700    1.000
    N53      N        0.05390    0.52740    0.16390    1.000
    N54      N        0.17530    0.58790    0.19840    1.000
    C9       C        0.23100    0.35150    0.90720    1.000
    H9       H        0.24690    0.29470    0.87150    1.000
    N55      N        0.22670    0.35110    0.59320    1.000
    N56      N        0.30890    0.44580    0.53260    1.000
    N57      N        0.25050    0.50300    0.49650    1.000
    N58      N        0.13380    0.44670    0.53300    1.000
    N59      N        0.47350    0.52740    0.33610    1.000
    N60      N        0.41260    0.58790    0.30160    1.000
    C10      C        0.12050    0.35150    0.59280    1.000
    H10      H        0.04780    0.29470    0.62850    1.000
    N61      N        0.12440    0.77330    0.59320    1.000
    N62      N        0.13690    0.69110    0.53260    1.000
    N63      N        0.25250    0.74950    0.49650    1.000
    N64      N        0.31290    0.86620    0.53300    1.000
    N65      N        0.05390    0.52650    0.33610    1.000
    N66      N        0.17530    0.58740    0.30160    1.000
    C11      C        0.23100    0.87950    0.59280    1.000
    H11      H        0.24690    0.95220    0.62850    1.000
    N67      N        0.64890    0.87560    0.59320    1.000
    N68      N        0.55420    0.86310    0.53260    1.000
    N69      N        0.49700    0.74750    0.49650    1.000
    N70      N        0.55330    0.68710    0.53300    1.000
    N71      N        0.47260    0.94610    0.33610    1.000
    N72      N        0.41210    0.82470    0.30160    1.000
    C12      C        0.64850    0.76900    0.59280    1.000
    H12      H        0.70530    0.75310    0.62850    1.000
    Cu1      Cu       0.50000    0.50000    0.00000    1.000
    Cu2      Cu       0.50000    0.00000    0.00000    1.000
    Cu3      Cu       0.00000    0.50000    0.00000    1.000
    Cu4      Cu       0.50000    0.50000    0.50000    1.000
    Cu5      Cu       0.00000    0.50000    0.50000    1.000
    Cu6      Cu       0.50000    0.00000    0.50000    1.000
    Cu7      Cu       0.66667    0.33333    0.90079    1.000
    Cu8      Cu       0.66667    0.33333    0.59921    1.000
    Cu9      Cu       0.33333    0.66667    0.09921    1.000
    Cu10     Cu       0.33333    0.66667    0.40079    1.000
    C13      C        0.49080    0.50920    0.75000    1.000
    H13      H        0.44730    0.55270    0.75000    1.000
    C14      C        0.49080    0.98160    0.75000    1.000
    H14      H        0.44730    0.89460    0.75000    1.000
    C15      C        0.01840    0.50920    0.75000    1.000
    H15      H        0.10540    0.55270    0.75000    1.000
    C16      C        0.50920    0.49080    0.25000    1.000
    H16      H        0.55270    0.44730    0.25000    1.000
    C17      C        0.50920    0.01840    0.25000    1.000
    H17      H        0.55270    0.10540    0.25000    1.000
    C18      C        0.98160    0.49080    0.25000    1.000
    H18      H        0.89460    0.44730    0.25000    1.000
