# CIF file generated by openbabel 3.1.0, see https://openbabel.org
data_I
_chemical_name_common 'image0'
_cell_length_a 9.4692
_cell_length_b 9.1622
_cell_length_c 9.7063
_cell_angle_alpha 90
_cell_angle_beta 117.562
_cell_angle_gamma 90
_space_group_name_H-M_alt 'P 1'
_space_group_name_Hall 'P 1'
loop_
    _symmetry_equiv_pos_as_xyz
    x,y,z
loop_
    _atom_site_label
    _atom_site_type_symbol
    _atom_site_fract_x
    _atom_site_fract_y
    _atom_site_fract_z
    _atom_site_occupancy
    P1       P        0.14504    0.65606    0.47293    1.000
    P2       P        0.66957    0.89780    0.43683    1.000
    O1       O        0.24850    0.72990    0.41250    1.000
    O2       O        0.99740    0.58650    0.34660    1.000
    O3       O        0.08880    0.77410    0.55640    1.000
    H1       H        0.15710    0.83760    0.59440    1.000
    O4       O        0.25230    0.54850    0.59520    1.000
    O5       O        0.50140    0.84730    0.38640    1.000
    O6       O        0.65580    0.03430    0.33340    1.000
    O7       O        0.75530    0.93990    0.60840    1.000
    O8       O        0.77060    0.77930    0.41250    1.000
    H2       H        0.86120    0.81020    0.44090    1.000
    P3       P        0.35496    0.65606    0.02707    1.000
    P4       P        0.83043    0.89780    0.06317    1.000
    O9       O        0.25150    0.72990    0.08750    1.000
    O10      O        0.50260    0.58650    0.15340    1.000
    O11      O        0.41120    0.77410    0.94360    1.000
    H3       H        0.34290    0.83760    0.90560    1.000
    O12      O        0.24770    0.54850    0.90480    1.000
    O13      O        0.99860    0.84730    0.11360    1.000
    O14      O        0.84420    0.03430    0.16660    1.000
    O15      O        0.74470    0.93990    0.89160    1.000
    O16      O        0.72940    0.77930    0.08750    1.000
    H4       H        0.63880    0.81020    0.05910    1.000
    P5       P        0.85496    0.34394    0.52707    1.000
    P6       P        0.33043    0.10220    0.56317    1.000
    O17      O        0.75150    0.27010    0.58750    1.000
    O18      O        0.00260    0.41350    0.65340    1.000
    O19      O        0.91120    0.22590    0.44360    1.000
    H5       H        0.84290    0.16240    0.40560    1.000
    O20      O        0.74770    0.45150    0.40480    1.000
    O21      O        0.49860    0.15270    0.61360    1.000
    O22      O        0.34420    0.96570    0.66660    1.000
    O23      O        0.24470    0.06010    0.39160    1.000
    O24      O        0.22940    0.22070    0.58750    1.000
    H6       H        0.13880    0.18980    0.55910    1.000
    P7       P        0.64504    0.34394    0.97293    1.000
    P8       P        0.16957    0.10220    0.93683    1.000
    O25      O        0.74850    0.27010    0.91250    1.000
    O26      O        0.49740    0.41350    0.84660    1.000
    O27      O        0.58880    0.22590    0.05640    1.000
    H7       H        0.65710    0.16240    0.09440    1.000
    O28      O        0.75230    0.45150    0.09520    1.000
    O29      O        0.00140    0.15270    0.88640    1.000
    O30      O        0.15580    0.96570    0.83340    1.000
    O31      O        0.25530    0.06010    0.10840    1.000
    O32      O        0.27060    0.22070    0.91250    1.000
    H8       H        0.36120    0.18980    0.94090    1.000
    In1      In       0.25000    0.88223    0.25000    1.000
    In2      In       0.75000    0.11777    0.75000    1.000
    In3      In       0.75000    0.60944    0.25000    1.000
    In4      In       0.25000    0.39056    0.75000    1.000
    Li1      Li       0.25000    0.87120    0.75000    1.000
    Li2      Li       0.75000    0.12880    0.25000    1.000
