# CIF file generated by openbabel 3.1.0, see https://openbabel.org
data_I
_chemical_name_common 'image0'
_cell_length_a 10.8984
_cell_length_b 11.426
_cell_length_c 15.059
_cell_angle_alpha 90
_cell_angle_beta 90
_cell_angle_gamma 90
_space_group_name_H-M_alt 'P 1'
_space_group_name_Hall 'P 1'
loop_
    _symmetry_equiv_pos_as_xyz
    x,y,z
loop_
    _atom_site_label
    _atom_site_type_symbol
    _atom_site_fract_x
    _atom_site_fract_y
    _atom_site_fract_z
    _atom_site_occupancy
    O1       O        0.33280    0.25130    0.20770    1.000
    O2       O        0.37540    0.08370    0.41320    1.000
    O3       O        0.17030    0.98110    0.33940    1.000
    O4       O        0.16940    0.98230    0.13980    1.000
    O5       O        0.31700    0.29500    0.02410    1.000
    C1       C        0.31660    0.13030    0.33570    1.000
    C2       C        0.28890    0.16180    0.14750    1.000
    C3       C        0.20110    0.07880    0.19590    1.000
    C4       C        0.25960    0.03350    0.28140    1.000
    C5       C        0.22910    0.22530    0.07080    1.000
    C6       C        0.40050    0.20630    0.28030    1.000
    H1       H        0.25190    0.17900    0.35610    1.000
    H2       H        0.35660    0.11800    0.12560    1.000
    H3       H        0.12780    0.12080    0.21060    1.000
    H4       H        0.32100    0.97720    0.26670    1.000
    H5       H        0.43040    0.26950    0.31550    1.000
    H6       H        0.16510    0.27470    0.09310    1.000
    H7       H        0.19360    0.16970    0.03120    1.000
    O6       O        0.83280    0.75130    0.20770    1.000
    O7       O        0.87540    0.58370    0.41320    1.000
    O8       O        0.67030    0.48110    0.33940    1.000
    O9       O        0.66940    0.48230    0.13980    1.000
    O10      O        0.81700    0.79500    0.02410    1.000
    C7       C        0.81660    0.63030    0.33570    1.000
    C8       C        0.78890    0.66180    0.14750    1.000
    C9       C        0.70110    0.57880    0.19590    1.000
    C10      C        0.75960    0.53350    0.28140    1.000
    C11      C        0.72910    0.72530    0.07080    1.000
    C12      C        0.90050    0.70630    0.28030    1.000
    H8       H        0.75190    0.67900    0.35610    1.000
    H9       H        0.85660    0.61800    0.12560    1.000
    H10      H        0.62780    0.62080    0.21060    1.000
    H11      H        0.82100    0.47720    0.26670    1.000
    H12      H        0.93040    0.76950    0.31550    1.000
    H13      H        0.66510    0.77470    0.09310    1.000
    H14      H        0.69360    0.66970    0.03120    1.000
    O11      O        0.66720    0.74870    0.70770    1.000
    O12      O        0.62460    0.91630    0.91320    1.000
    O13      O        0.82970    0.01890    0.83940    1.000
    O14      O        0.83060    0.01770    0.63980    1.000
    O15      O        0.68300    0.70500    0.52410    1.000
    C13      C        0.68340    0.86970    0.83570    1.000
    C14      C        0.71110    0.83820    0.64750    1.000
    C15      C        0.79890    0.92120    0.69590    1.000
    C16      C        0.74040    0.96650    0.78140    1.000
    C17      C        0.77090    0.77470    0.57080    1.000
    C18      C        0.59950    0.79370    0.78030    1.000
    H15      H        0.74810    0.82100    0.85610    1.000
    H16      H        0.64340    0.88200    0.62560    1.000
    H17      H        0.87220    0.87920    0.71060    1.000
    H18      H        0.67900    0.02280    0.76670    1.000
    H19      H        0.56960    0.73050    0.81550    1.000
    H20      H        0.83490    0.72530    0.59310    1.000
    H21      H        0.80640    0.83030    0.53120    1.000
    O16      O        0.16720    0.24870    0.70770    1.000
    O17      O        0.12460    0.41630    0.91320    1.000
    O18      O        0.32970    0.51890    0.83940    1.000
    O19      O        0.33060    0.51770    0.63980    1.000
    O20      O        0.18300    0.20500    0.52410    1.000
    C19      C        0.18340    0.36970    0.83570    1.000
    C20      C        0.21110    0.33820    0.64750    1.000
    C21      C        0.29890    0.42120    0.69590    1.000
    C22      C        0.24040    0.46650    0.78140    1.000
    C23      C        0.27090    0.27470    0.57080    1.000
    C24      C        0.09950    0.29370    0.78030    1.000
    H22      H        0.24810    0.32100    0.85610    1.000
    H23      H        0.14340    0.38200    0.62560    1.000
    H24      H        0.37220    0.37920    0.71060    1.000
    H25      H        0.17900    0.52280    0.76670    1.000
    H26      H        0.06960    0.23050    0.81550    1.000
    H27      H        0.33490    0.22530    0.59310    1.000
    H28      H        0.30640    0.33030    0.53120    1.000
    O21      O        0.66720    0.25130    0.29230    1.000
    O22      O        0.62460    0.08370    0.08680    1.000
    O23      O        0.82970    0.98110    0.16060    1.000
    O24      O        0.83060    0.98230    0.36020    1.000
    O25      O        0.68300    0.29500    0.47590    1.000
    C25      C        0.68340    0.13030    0.16430    1.000
    C26      C        0.71110    0.16180    0.35250    1.000
    C27      C        0.79890    0.07880    0.30410    1.000
    C28      C        0.74040    0.03350    0.21860    1.000
    C29      C        0.77090    0.22530    0.42920    1.000
    C30      C        0.59950    0.20630    0.21970    1.000
    H29      H        0.74810    0.17900    0.14390    1.000
    H30      H        0.64340    0.11800    0.37440    1.000
    H31      H        0.87220    0.12080    0.28940    1.000
    H32      H        0.67900    0.97720    0.23330    1.000
    H33      H        0.56960    0.26950    0.18450    1.000
    H34      H        0.83490    0.27470    0.40690    1.000
    H35      H        0.80640    0.16970    0.46880    1.000
    O26      O        0.16720    0.75130    0.29230    1.000
    O27      O        0.12460    0.58370    0.08680    1.000
    O28      O        0.32970    0.48110    0.16060    1.000
    O29      O        0.33060    0.48230    0.36020    1.000
    O30      O        0.18300    0.79500    0.47590    1.000
    C31      C        0.18340    0.63030    0.16430    1.000
    C32      C        0.21110    0.66180    0.35250    1.000
    C33      C        0.29890    0.57880    0.30410    1.000
    C34      C        0.24040    0.53350    0.21860    1.000
    C35      C        0.27090    0.72530    0.42920    1.000
    C36      C        0.09950    0.70630    0.21970    1.000
    H36      H        0.24810    0.67900    0.14390    1.000
    H37      H        0.14340    0.61800    0.37440    1.000
    H38      H        0.37220    0.62080    0.28940    1.000
    H39      H        0.17900    0.47720    0.23330    1.000
    H40      H        0.06960    0.76950    0.18450    1.000
    H41      H        0.33490    0.77470    0.40690    1.000
    H42      H        0.30640    0.66970    0.46880    1.000
    O31      O        0.33280    0.74870    0.79230    1.000
    O32      O        0.37540    0.91630    0.58680    1.000
    O33      O        0.17030    0.01890    0.66060    1.000
    O34      O        0.16940    0.01770    0.86020    1.000
    O35      O        0.31700    0.70500    0.97590    1.000
    C37      C        0.31660    0.86970    0.66430    1.000
    C38      C        0.28890    0.83820    0.85250    1.000
    C39      C        0.20110    0.92120    0.80410    1.000
    C40      C        0.25960    0.96650    0.71860    1.000
    C41      C        0.22910    0.77470    0.92920    1.000
    C42      C        0.40050    0.79370    0.71970    1.000
    H43      H        0.25190    0.82100    0.64390    1.000
    H44      H        0.35660    0.88200    0.87440    1.000
    H45      H        0.12780    0.87920    0.78940    1.000
    H46      H        0.32100    0.02280    0.73330    1.000
    H47      H        0.43040    0.73050    0.68450    1.000
    H48      H        0.16510    0.72530    0.90690    1.000
    H49      H        0.19360    0.83030    0.96880    1.000
    O36      O        0.83280    0.24870    0.79230    1.000
    O37      O        0.87540    0.41630    0.58680    1.000
    O38      O        0.67030    0.51890    0.66060    1.000
    O39      O        0.66940    0.51770    0.86020    1.000
    O40      O        0.81700    0.20500    0.97590    1.000
    C43      C        0.81660    0.36970    0.66430    1.000
    C44      C        0.78890    0.33820    0.85250    1.000
    C45      C        0.70110    0.42120    0.80410    1.000
    C46      C        0.75960    0.46650    0.71860    1.000
    C47      C        0.72910    0.27470    0.92920    1.000
    C48      C        0.90050    0.29370    0.71970    1.000
    H50      H        0.75190    0.32100    0.64390    1.000
    H51      H        0.85660    0.38200    0.87440    1.000
    H52      H        0.62780    0.37920    0.78940    1.000
    H53      H        0.82100    0.52280    0.73330    1.000
    H54      H        0.93040    0.23050    0.68450    1.000
    H55      H        0.66510    0.22530    0.90690    1.000
    H56      H        0.69360    0.33030    0.96880    1.000
    Ca1      Ca       0.20585    0.00000    0.50000    1.000
    Ca2      Ca       0.70585    0.50000    0.50000    1.000
    Ca3      Ca       0.79415    0.00000    0.00000    1.000
    Ca4      Ca       0.29415    0.50000    0.00000    1.000
    O41      O        0.50000    0.13820    0.25000    1.000
    O42      O        0.00000    0.63820    0.25000    1.000
    O43      O        0.50000    0.86180    0.75000    1.000
    O44      O        0.00000    0.36180    0.75000    1.000
