# CIF file generated by openbabel 3.1.0, see https://openbabel.org
data_I
_chemical_name_common 'image0'
_cell_length_a 8.0674
_cell_length_b 10.006
_cell_length_c 20.4432
_cell_angle_alpha 100.972
_cell_angle_beta 95.065
_cell_angle_gamma 105.053
_space_group_name_H-M_alt 'P 1'
_space_group_name_Hall 'P 1'
loop_
    _symmetry_equiv_pos_as_xyz
    x,y,z
loop_
    _atom_site_label
    _atom_site_type_symbol
    _atom_site_fract_x
    _atom_site_fract_y
    _atom_site_fract_z
    _atom_site_occupancy
    In1      In       0.11547    0.46939    0.62531    1.000
    In2      In       0.90401    0.90585    0.66927    1.000
    In3      In       0.65109    0.68307    0.82015    1.000
    In4      In       0.02231    0.36439    0.88908    1.000
    P1       P        0.75360    0.54190    0.95330    1.000
    P2       P        0.01010    0.67960    0.75263    1.000
    P3       P        0.97680    0.67930    0.53957    1.000
    P4       P        0.48580    0.74030    0.67197    1.000
    P5       P        0.83000    0.02120    0.83257    1.000
    H1       H        0.71320    0.03360    0.82970    1.000
    O1       O        0.36230    0.60630    0.63010    1.000
    O2       O        0.94820    0.57350    0.58450    1.000
    O3       O        0.07940    0.55500    0.72480    1.000
    O4       O        0.85470    0.62390    0.47390    1.000
    O5       O        0.88680    0.28870    0.61890    1.000
    O6       O        0.21790    0.31120    0.66480    1.000
    O7       O        0.65540    0.76490    0.64260    1.000
    O8       O        0.85730    0.00810    0.76340    1.000
    O9       O        0.96390    0.82410    0.57450    1.000
    O10      O        0.05760    0.80040    0.71670    1.000
    O11      O        0.80820    0.06520    0.62960    1.000
    O12      O        0.13680    0.09000    0.67970    1.000
    O13      O        0.80220    0.89100    0.86100    1.000
    O14      O        0.81680    0.62540    0.75480    1.000
    O15      O        0.78050    0.63260    0.90170    1.000
    O16      O        0.50630    0.74300    0.74580    1.000
    O17      O        0.47360    0.46710    0.80010    1.000
    O18      O        0.43440    0.70510    0.87640    1.000
    O19      O        0.82930    0.41840    0.93910    1.000
    O20      O        0.92580    0.14750    0.88320    1.000
    O21      O        0.81600    0.63190    0.02400    1.000
    O22      O        0.17700    0.58310    0.89470    1.000
    O23      O        0.23640    0.34030    0.83160    1.000
    C1       C        0.31550    0.59350    0.87010    1.000
    C2       C        0.34450    0.45520    0.83000    1.000
    C3       C        0.91830    0.18230    0.63490    1.000
    C4       C        0.10730    0.19530    0.66240    1.000
    H2       H        0.56100    0.48100    0.94200    1.000
    H3       H        0.07800    0.72800    0.81300    1.000
    H4       H        0.14200    0.69600    0.52200    1.000
    H5       H        0.41200    0.84500    0.66100    1.000
    In5      In       0.88453    0.53061    0.37469    1.000
    In6      In       0.09599    0.09415    0.33073    1.000
    In7      In       0.34891    0.31693    0.17985    1.000
    In8      In       0.97769    0.63561    0.11092    1.000
    P6       P        0.24640    0.45810    0.04670    1.000
    P7       P        0.98990    0.32040    0.24737    1.000
    P8       P        0.02320    0.32070    0.46043    1.000
    P9       P        0.51420    0.25970    0.32803    1.000
    P10      P        0.17000    0.97880    0.16743    1.000
    H6       H        0.28680    0.96640    0.17030    1.000
    O24      O        0.63770    0.39370    0.36990    1.000
    O25      O        0.05180    0.42650    0.41550    1.000
    O26      O        0.92060    0.44500    0.27520    1.000
    O27      O        0.14530    0.37610    0.52610    1.000
    O28      O        0.11320    0.71130    0.38110    1.000
    O29      O        0.78210    0.68880    0.33520    1.000
    O30      O        0.34460    0.23510    0.35740    1.000
    O31      O        0.14270    0.99190    0.23660    1.000
    O32      O        0.03610    0.17590    0.42550    1.000
    O33      O        0.94240    0.19960    0.28330    1.000
    O34      O        0.19180    0.93480    0.37040    1.000
    O35      O        0.86320    0.91000    0.32030    1.000
    O36      O        0.19780    0.10900    0.13900    1.000
    O37      O        0.18320    0.37460    0.24520    1.000
    O38      O        0.21950    0.36740    0.09830    1.000
    O39      O        0.49370    0.25700    0.25420    1.000
    O40      O        0.52640    0.53290    0.19990    1.000
    O41      O        0.56560    0.29490    0.12360    1.000
    O42      O        0.17070    0.58160    0.06090    1.000
    O43      O        0.07420    0.85250    0.11680    1.000
    O44      O        0.18400    0.36810    0.97600    1.000
    O45      O        0.82300    0.41690    0.10530    1.000
    O46      O        0.76360    0.65970    0.16840    1.000
    C5       C        0.68450    0.40650    0.12990    1.000
    C6       C        0.65550    0.54480    0.17000    1.000
    C7       C        0.08170    0.81770    0.36510    1.000
    C8       C        0.89270    0.80470    0.33760    1.000
    H7       H        0.43900    0.51900    0.05800    1.000
    H8       H        0.92200    0.27200    0.18700    1.000
    H9       H        0.85800    0.30400    0.47800    1.000
    H10      H        0.58800    0.15500    0.33900    1.000
