# CIF file generated by openbabel 3.1.0, see https://openbabel.org
data_I
_chemical_name_common 'image0'
_cell_length_a 41.09
_cell_length_b 41.09
_cell_length_c 17.747
_cell_angle_alpha 90
_cell_angle_beta 90
_cell_angle_gamma 120
_space_group_name_H-M_alt 'P 1'
_space_group_name_Hall 'P 1'
loop_
    _symmetry_equiv_pos_as_xyz
    x,y,z
loop_
    _atom_site_label
    _atom_site_type_symbol
    _atom_site_fract_x
    _atom_site_fract_y
    _atom_site_fract_z
    _atom_site_occupancy
    Zn1      Zn       0.39958    0.37280    0.16187    1.000
    O1       O        0.38500    0.33390    0.09340    1.000
    O2       O        0.40980    0.30050    0.15440    1.000
    C1       C        0.39630    0.30860    0.09750    1.000
    C2       C        0.39030    0.28540    0.02120    1.000
    C3       C        0.36890    0.29090    0.96490    1.000
    C4       C        0.36530    0.27050    0.89480    1.000
    H1       H        0.35350    0.27370    0.85230    1.000
    C5       C        0.37990    0.24610    0.89240    1.000
    C6       C        0.40420    0.24550    0.95240    1.000
    H2       H        0.41960    0.23500    0.94310    1.000
    C7       C        0.40450    0.26090    0.02600    1.000
    H3       H        0.41300    0.25520    0.07060    1.000
    C8       C        0.37690    0.22620    0.81310    1.000
    C9       C        0.37770    0.19250    0.81800    1.000
    H4       H        0.37900    0.18240    0.86460    1.000
    C10      C        0.37080    0.11950    0.80960    1.000
    H5       H        0.36060    0.12550    0.85100    1.000
    C11      C        0.37910    0.08840    0.81720    1.000
    H6       H        0.38780    0.08200    0.86050    1.000
    O3       O        0.37190    0.01720    0.81270    1.000
    O4       O        0.43340    0.41500    0.10230    1.000
    O5       O        0.48880    0.44430    0.16440    1.000
    C12      C        0.46700    0.43850    0.11230    1.000
    C13      C        0.48180    0.46470    0.03950    1.000
    C14      C        0.51940    0.49180    0.04820    1.000
    C15      C        0.46200    0.48220    0.00860    1.000
    C16      C        0.48100    0.48320    0.07420    1.000
    C17      C        0.51860    0.51030    0.08300    1.000
    C18      C        0.46280    0.46370    0.97390    1.000
    Zn2      Zn       0.62720    0.02678    0.16187    1.000
    O6       O        0.66610    0.05110    0.09340    1.000
    O7       O        0.69950    0.10930    0.15440    1.000
    C19      C        0.69140    0.08770    0.09750    1.000
    C20      C        0.71460    0.10490    0.02120    1.000
    C21      C        0.70910    0.07800    0.96490    1.000
    C22      C        0.72950    0.09480    0.89480    1.000
    H7       H        0.72630    0.07980    0.85230    1.000
    C23      C        0.75390    0.13380    0.89240    1.000
    C24      C        0.75450    0.15870    0.95240    1.000
    H8       H        0.76500    0.18460    0.94310    1.000
    C25      C        0.73910    0.14360    0.02600    1.000
    H9       H        0.74480    0.15780    0.07060    1.000
    C26      C        0.77380    0.15070    0.81310    1.000
    C27      C        0.80750    0.18520    0.81800    1.000
    H10      H        0.81760    0.19660    0.86460    1.000
    C28      C        0.88050    0.25130    0.80960    1.000
    H11      H        0.87450    0.23510    0.85100    1.000
    C29      C        0.91160    0.29070    0.81720    1.000
    H12      H        0.91800    0.30580    0.86050    1.000
    O8       O        0.98280    0.35470    0.81270    1.000
    O9       O        0.58500    0.01840    0.10230    1.000
    O10      O        0.55570    0.04450    0.16440    1.000
    C30      C        0.56150    0.02850    0.11230    1.000
    C31      C        0.53530    0.01710    0.03950    1.000
    C32      C        0.50820    0.02760    0.04820    1.000
    C33      C        0.51780    0.97980    0.00860    1.000
    C34      C        0.51680    0.99780    0.07420    1.000
    C35      C        0.48970    0.00830    0.08300    1.000
    C36      C        0.53630    0.99910    0.97390    1.000
    Zn3      Zn       0.97322    0.60042    0.16187    1.000
    O11      O        0.94890    0.61500    0.09340    1.000
    O12      O        0.89070    0.59020    0.15440    1.000
    C37      C        0.91230    0.60370    0.09750    1.000
    C38      C        0.89510    0.60970    0.02120    1.000
    C39      C        0.92200    0.63110    0.96490    1.000
    C40      C        0.90520    0.63470    0.89480    1.000
    H13      H        0.92020    0.64650    0.85230    1.000
    C41      C        0.86620    0.62010    0.89240    1.000
    C42      C        0.84130    0.59580    0.95240    1.000
    H14      H        0.81540    0.58040    0.94310    1.000
    C43      C        0.85640    0.59550    0.02600    1.000
    H15      H        0.84220    0.58700    0.07060    1.000
    C44      C        0.84930    0.62310    0.81310    1.000
    C45      C        0.81480    0.62230    0.81800    1.000
    H16      H        0.80340    0.62100    0.86460    1.000
    C46      C        0.74870    0.62920    0.80960    1.000
    H17      H        0.76490    0.63940    0.85100    1.000
    C47      C        0.70930    0.62090    0.81720    1.000
    H18      H        0.69420    0.61220    0.86050    1.000
    O13      O        0.64530    0.62810    0.81270    1.000
    O14      O        0.98160    0.56660    0.10230    1.000
    O15      O        0.95550    0.51120    0.16440    1.000
    C48      C        0.97150    0.53300    0.11230    1.000
    C49      C        0.98290    0.51820    0.03950    1.000
    C50      C        0.97240    0.48060    0.04820    1.000
    C51      C        0.02020    0.53800    0.00860    1.000
    C52      C        0.00220    0.51900    0.07420    1.000
    C53      C        0.99170    0.48140    0.08300    1.000
    C54      C        0.00090    0.53720    0.97390    1.000
    Zn4      Zn       0.60042    0.62720    0.66187    1.000
    O16      O        0.61500    0.66610    0.59340    1.000
    O17      O        0.59020    0.69950    0.65440    1.000
    C55      C        0.60370    0.69140    0.59750    1.000
    C56      C        0.60970    0.71460    0.52120    1.000
    C57      C        0.63110    0.70910    0.46490    1.000
    C58      C        0.63470    0.72950    0.39480    1.000
    H19      H        0.64650    0.72630    0.35230    1.000
    C59      C        0.62010    0.75390    0.39240    1.000
    C60      C        0.59580    0.75450    0.45240    1.000
    H20      H        0.58040    0.76500    0.44310    1.000
    C61      C        0.59550    0.73910    0.52600    1.000
    H21      H        0.58700    0.74480    0.57060    1.000
    C62      C        0.62310    0.77380    0.31310    1.000
    C63      C        0.62230    0.80750    0.31800    1.000
    H22      H        0.62100    0.81760    0.36460    1.000
    C64      C        0.62920    0.88050    0.30960    1.000
    H23      H        0.63940    0.87450    0.35100    1.000
    C65      C        0.62090    0.91160    0.31720    1.000
    H24      H        0.61220    0.91800    0.36050    1.000
    O18      O        0.62810    0.98280    0.31270    1.000
    O19      O        0.56660    0.58500    0.60230    1.000
    O20      O        0.51120    0.55570    0.66440    1.000
    C66      C        0.53300    0.56150    0.61230    1.000
    C67      C        0.51820    0.53530    0.53950    1.000
    C68      C        0.48060    0.50820    0.54820    1.000
    C69      C        0.53800    0.51780    0.50860    1.000
    C70      C        0.51900    0.51680    0.57420    1.000
    C71      C        0.48140    0.48970    0.58300    1.000
    C72      C        0.53720    0.53630    0.47390    1.000
    Zn5      Zn       0.37280    0.97322    0.66187    1.000
    O21      O        0.33390    0.94890    0.59340    1.000
    O22      O        0.30050    0.89070    0.65440    1.000
    C73      C        0.30860    0.91230    0.59750    1.000
    C74      C        0.28540    0.89510    0.52120    1.000
    C75      C        0.29090    0.92200    0.46490    1.000
    C76      C        0.27050    0.90520    0.39480    1.000
    H25      H        0.27370    0.92020    0.35230    1.000
    C77      C        0.24610    0.86620    0.39240    1.000
    C78      C        0.24550    0.84130    0.45240    1.000
    H26      H        0.23500    0.81540    0.44310    1.000
    C79      C        0.26090    0.85640    0.52600    1.000
    H27      H        0.25520    0.84220    0.57060    1.000
    C80      C        0.22620    0.84930    0.31310    1.000
    C81      C        0.19250    0.81480    0.31800    1.000
    H28      H        0.18240    0.80340    0.36460    1.000
    C82      C        0.11950    0.74870    0.30960    1.000
    H29      H        0.12550    0.76490    0.35100    1.000
    C83      C        0.08840    0.70930    0.31720    1.000
    H30      H        0.08200    0.69420    0.36050    1.000
    O23      O        0.01720    0.64530    0.31270    1.000
    O24      O        0.41500    0.98160    0.60230    1.000
    O25      O        0.44430    0.95550    0.66440    1.000
    C84      C        0.43850    0.97150    0.61230    1.000
    C85      C        0.46470    0.98290    0.53950    1.000
    C86      C        0.49180    0.97240    0.54820    1.000
    C87      C        0.48220    0.02020    0.50860    1.000
    C88      C        0.48320    0.00220    0.57420    1.000
    C89      C        0.51030    0.99170    0.58300    1.000
    C90      C        0.46370    0.00090    0.47390    1.000
    Zn6      Zn       0.02678    0.39958    0.66187    1.000
    O26      O        0.05110    0.38500    0.59340    1.000
    O27      O        0.10930    0.40980    0.65440    1.000
    C91      C        0.08770    0.39630    0.59750    1.000
    C92      C        0.10490    0.39030    0.52120    1.000
    C93      C        0.07800    0.36890    0.46490    1.000
    C94      C        0.09480    0.36530    0.39480    1.000
    H31      H        0.07980    0.35350    0.35230    1.000
    C95      C        0.13380    0.37990    0.39240    1.000
    C96      C        0.15870    0.40420    0.45240    1.000
    H32      H        0.18460    0.41960    0.44310    1.000
    C97      C        0.14360    0.40450    0.52600    1.000
    H33      H        0.15780    0.41300    0.57060    1.000
    C98      C        0.15070    0.37690    0.31310    1.000
    C99      C        0.18520    0.37770    0.31800    1.000
    H34      H        0.19660    0.37900    0.36460    1.000
    C100     C        0.25130    0.37080    0.30960    1.000
    H35      H        0.23510    0.36060    0.35100    1.000
    C101     C        0.29070    0.37910    0.31720    1.000
    H36      H        0.30580    0.38780    0.36050    1.000
    O28      O        0.35470    0.37190    0.31270    1.000
    O29      O        0.01840    0.43340    0.60230    1.000
    O30      O        0.04450    0.48880    0.66440    1.000
    C102     C        0.02850    0.46700    0.61230    1.000
    C103     C        0.01710    0.48180    0.53950    1.000
    C104     C        0.02760    0.51940    0.54820    1.000
    C105     C        0.97980    0.46200    0.50860    1.000
    C106     C        0.99780    0.48100    0.57420    1.000
    C107     C        0.00830    0.51860    0.58300    1.000
    C108     C        0.99910    0.46280    0.47390    1.000
    Zn7      Zn       0.60042    0.62720    0.83813    1.000
    O31      O        0.61500    0.66610    0.90660    1.000
    O32      O        0.59020    0.69950    0.84560    1.000
    C109     C        0.60370    0.69140    0.90250    1.000
    C110     C        0.60970    0.71460    0.97880    1.000
    C111     C        0.63110    0.70910    0.03510    1.000
    C112     C        0.63470    0.72950    0.10520    1.000
    H37      H        0.64650    0.72630    0.14770    1.000
    C113     C        0.62010    0.75390    0.10760    1.000
    C114     C        0.59580    0.75450    0.04760    1.000
    H38      H        0.58040    0.76500    0.05690    1.000
    C115     C        0.59550    0.73910    0.97400    1.000
    H39      H        0.58700    0.74480    0.92940    1.000
    C116     C        0.62310    0.77380    0.18690    1.000
    C117     C        0.62230    0.80750    0.18200    1.000
    H40      H        0.62100    0.81760    0.13540    1.000
    C118     C        0.62920    0.88050    0.19040    1.000
    H41      H        0.63940    0.87450    0.14900    1.000
    C119     C        0.62090    0.91160    0.18280    1.000
    H42      H        0.61220    0.91800    0.13950    1.000
    O33      O        0.62810    0.98280    0.18730    1.000
    O34      O        0.56660    0.58500    0.89770    1.000
    O35      O        0.51120    0.55570    0.83560    1.000
    C120     C        0.53300    0.56150    0.88770    1.000
    C121     C        0.51820    0.53530    0.96050    1.000
    C122     C        0.48060    0.50820    0.95180    1.000
    C123     C        0.53800    0.51780    0.99140    1.000
    C124     C        0.51900    0.51680    0.92580    1.000
    C125     C        0.48140    0.48970    0.91700    1.000
    C126     C        0.53720    0.53630    0.02610    1.000
    Zn8      Zn       0.37280    0.97322    0.83813    1.000
    O36      O        0.33390    0.94890    0.90660    1.000
    O37      O        0.30050    0.89070    0.84560    1.000
    C127     C        0.30860    0.91230    0.90250    1.000
    C128     C        0.28540    0.89510    0.97880    1.000
    C129     C        0.29090    0.92200    0.03510    1.000
    C130     C        0.27050    0.90520    0.10520    1.000
    H43      H        0.27370    0.92020    0.14770    1.000
    C131     C        0.24610    0.86620    0.10760    1.000
    C132     C        0.24550    0.84130    0.04760    1.000
    H44      H        0.23500    0.81540    0.05690    1.000
    C133     C        0.26090    0.85640    0.97400    1.000
    H45      H        0.25520    0.84220    0.92940    1.000
    C134     C        0.22620    0.84930    0.18690    1.000
    C135     C        0.19250    0.81480    0.18200    1.000
    H46      H        0.18240    0.80340    0.13540    1.000
    C136     C        0.11950    0.74870    0.19040    1.000
    H47      H        0.12550    0.76490    0.14900    1.000
    C137     C        0.08840    0.70930    0.18280    1.000
    H48      H        0.08200    0.69420    0.13950    1.000
    O38      O        0.01720    0.64530    0.18730    1.000
    O39      O        0.41500    0.98160    0.89770    1.000
    O40      O        0.44430    0.95550    0.83560    1.000
    C138     C        0.43850    0.97150    0.88770    1.000
    C139     C        0.46470    0.98290    0.96050    1.000
    C140     C        0.49180    0.97240    0.95180    1.000
    C141     C        0.48220    0.02020    0.99140    1.000
    C142     C        0.48320    0.00220    0.92580    1.000
    C143     C        0.51030    0.99170    0.91700    1.000
    C144     C        0.46370    0.00090    0.02610    1.000
    Zn9      Zn       0.02678    0.39958    0.83813    1.000
    O41      O        0.05110    0.38500    0.90660    1.000
    O42      O        0.10930    0.40980    0.84560    1.000
    C145     C        0.08770    0.39630    0.90250    1.000
    C146     C        0.10490    0.39030    0.97880    1.000
    C147     C        0.07800    0.36890    0.03510    1.000
    C148     C        0.09480    0.36530    0.10520    1.000
    H49      H        0.07980    0.35350    0.14770    1.000
    C149     C        0.13380    0.37990    0.10760    1.000
    C150     C        0.15870    0.40420    0.04760    1.000
    H50      H        0.18460    0.41960    0.05690    1.000
    C151     C        0.14360    0.40450    0.97400    1.000
    H51      H        0.15780    0.41300    0.92940    1.000
    C152     C        0.15070    0.37690    0.18690    1.000
    C153     C        0.18520    0.37770    0.18200    1.000
    H52      H        0.19660    0.37900    0.13540    1.000
    C154     C        0.25130    0.37080    0.19040    1.000
    H53      H        0.23510    0.36060    0.14900    1.000
    C155     C        0.29070    0.37910    0.18280    1.000
    H54      H        0.30580    0.38780    0.13950    1.000
    O43      O        0.35470    0.37190    0.18730    1.000
    O44      O        0.01840    0.43340    0.89770    1.000
    O45      O        0.04450    0.48880    0.83560    1.000
    C156     C        0.02850    0.46700    0.88770    1.000
    C157     C        0.01710    0.48180    0.96050    1.000
    C158     C        0.02760    0.51940    0.95180    1.000
    C159     C        0.97980    0.46200    0.99140    1.000
    C160     C        0.99780    0.48100    0.92580    1.000
    C161     C        0.00830    0.51860    0.91700    1.000
    C162     C        0.99910    0.46280    0.02610    1.000
    Zn10     Zn       0.39958    0.37280    0.33813    1.000
    O46      O        0.38500    0.33390    0.40660    1.000
    O47      O        0.40980    0.30050    0.34560    1.000
    C163     C        0.39630    0.30860    0.40250    1.000
    C164     C        0.39030    0.28540    0.47880    1.000
    C165     C        0.36890    0.29090    0.53510    1.000
    C166     C        0.36530    0.27050    0.60520    1.000
    H55      H        0.35350    0.27370    0.64770    1.000
    C167     C        0.37990    0.24610    0.60760    1.000
    C168     C        0.40420    0.24550    0.54760    1.000
    H56      H        0.41960    0.23500    0.55690    1.000
    C169     C        0.40450    0.26090    0.47400    1.000
    H57      H        0.41300    0.25520    0.42940    1.000
    C170     C        0.37690    0.22620    0.68690    1.000
    C171     C        0.37770    0.19250    0.68200    1.000
    H58      H        0.37900    0.18240    0.63540    1.000
    C172     C        0.37080    0.11950    0.69040    1.000
    H59      H        0.36060    0.12550    0.64900    1.000
    C173     C        0.37910    0.08840    0.68280    1.000
    H60      H        0.38780    0.08200    0.63950    1.000
    O48      O        0.37190    0.01720    0.68730    1.000
    O49      O        0.43340    0.41500    0.39770    1.000
    O50      O        0.48880    0.44430    0.33560    1.000
    C174     C        0.46700    0.43850    0.38770    1.000
    C175     C        0.48180    0.46470    0.46050    1.000
    C176     C        0.51940    0.49180    0.45180    1.000
    C177     C        0.46200    0.48220    0.49140    1.000
    C178     C        0.48100    0.48320    0.42580    1.000
    C179     C        0.51860    0.51030    0.41700    1.000
    C180     C        0.46280    0.46370    0.52610    1.000
    Zn11     Zn       0.62720    0.02678    0.33813    1.000
    O51      O        0.66610    0.05110    0.40660    1.000
    O52      O        0.69950    0.10930    0.34560    1.000
    C181     C        0.69140    0.08770    0.40250    1.000
    C182     C        0.71460    0.10490    0.47880    1.000
    C183     C        0.70910    0.07800    0.53510    1.000
    C184     C        0.72950    0.09480    0.60520    1.000
    H61      H        0.72630    0.07980    0.64770    1.000
    C185     C        0.75390    0.13380    0.60760    1.000
    C186     C        0.75450    0.15870    0.54760    1.000
    H62      H        0.76500    0.18460    0.55690    1.000
    C187     C        0.73910    0.14360    0.47400    1.000
    H63      H        0.74480    0.15780    0.42940    1.000
    C188     C        0.77380    0.15070    0.68690    1.000
    C189     C        0.80750    0.18520    0.68200    1.000
    H64      H        0.81760    0.19660    0.63540    1.000
    C190     C        0.88050    0.25130    0.69040    1.000
    H65      H        0.87450    0.23510    0.64900    1.000
    C191     C        0.91160    0.29070    0.68280    1.000
    H66      H        0.91800    0.30580    0.63950    1.000
    O53      O        0.98280    0.35470    0.68730    1.000
    O54      O        0.58500    0.01840    0.39770    1.000
    O55      O        0.55570    0.04450    0.33560    1.000
    C192     C        0.56150    0.02850    0.38770    1.000
    C193     C        0.53530    0.01710    0.46050    1.000
    C194     C        0.50820    0.02760    0.45180    1.000
    C195     C        0.51780    0.97980    0.49140    1.000
    C196     C        0.51680    0.99780    0.42580    1.000
    C197     C        0.48970    0.00830    0.41700    1.000
    C198     C        0.53630    0.99910    0.52610    1.000
    Zn12     Zn       0.97322    0.60042    0.33813    1.000
    O56      O        0.94890    0.61500    0.40660    1.000
    O57      O        0.89070    0.59020    0.34560    1.000
    C199     C        0.91230    0.60370    0.40250    1.000
    C200     C        0.89510    0.60970    0.47880    1.000
    C201     C        0.92200    0.63110    0.53510    1.000
    C202     C        0.90520    0.63470    0.60520    1.000
    H67      H        0.92020    0.64650    0.64770    1.000
    C203     C        0.86620    0.62010    0.60760    1.000
    C204     C        0.84130    0.59580    0.54760    1.000
    H68      H        0.81540    0.58040    0.55690    1.000
    C205     C        0.85640    0.59550    0.47400    1.000
    H69      H        0.84220    0.58700    0.42940    1.000
    C206     C        0.84930    0.62310    0.68690    1.000
    C207     C        0.81480    0.62230    0.68200    1.000
    H70      H        0.80340    0.62100    0.63540    1.000
    C208     C        0.74870    0.62920    0.69040    1.000
    H71      H        0.76490    0.63940    0.64900    1.000
    C209     C        0.70930    0.62090    0.68280    1.000
    H72      H        0.69420    0.61220    0.63950    1.000
    O58      O        0.64530    0.62810    0.68730    1.000
    O59      O        0.98160    0.56660    0.39770    1.000
    O60      O        0.95550    0.51120    0.33560    1.000
    C210     C        0.97150    0.53300    0.38770    1.000
    C211     C        0.98290    0.51820    0.46050    1.000
    C212     C        0.97240    0.48060    0.45180    1.000
    C213     C        0.02020    0.53800    0.49140    1.000
    C214     C        0.00220    0.51900    0.42580    1.000
    C215     C        0.99170    0.48140    0.41700    1.000
    C216     C        0.00090    0.53720    0.52610    1.000
    Zn13     Zn       0.42228    0.31999    0.25000    1.000
    Zn14     Zn       0.47598    0.40932    0.25000    1.000
    O61      O        0.42320    0.36870    0.25000    1.000
    O62      O        0.51220    0.39330    0.25000    1.000
    O63      O        0.47640    0.33600    0.25000    1.000
    C217     C        0.50820    0.35890    0.25000    1.000
    C218     C        0.54250    0.35690    0.25000    1.000
    C219     C        0.57940    0.38650    0.25000    1.000
    H73      H        0.58430    0.41150    0.25000    1.000
    C220     C        0.60900    0.37930    0.25000    1.000
    H74      H        0.63390    0.39930    0.25000    1.000
    C221     C        0.60170    0.34240    0.25000    1.000
    C222     C        0.56490    0.31280    0.25000    1.000
    H75      H        0.56000    0.28790    0.25000    1.000
    C223     C        0.53530    0.32010    0.25000    1.000
    H76      H        0.51030    0.30000    0.25000    1.000
    C224     C        0.63640    0.33580    0.25000    1.000
    C225     C        0.66990    0.36890    0.25000    1.000
    Zn15     Zn       0.68001    0.10229    0.25000    1.000
    Zn16     Zn       0.59068    0.06666    0.25000    1.000
    O64      O        0.63130    0.05450    0.25000    1.000
    O65      O        0.60670    0.11890    0.25000    1.000
    O66      O        0.66400    0.14040    0.25000    1.000
    C226     C        0.64110    0.14930    0.25000    1.000
    C227     C        0.64310    0.18560    0.25000    1.000
    C228     C        0.61350    0.19290    0.25000    1.000
    H77      H        0.58850    0.17280    0.25000    1.000
    C229     C        0.62070    0.22970    0.25000    1.000
    H78      H        0.60070    0.23460    0.25000    1.000
    C230     C        0.65760    0.25930    0.25000    1.000
    C231     C        0.68720    0.25210    0.25000    1.000
    H79      H        0.71210    0.27210    0.25000    1.000
    C232     C        0.67990    0.21520    0.25000    1.000
    H80      H        0.70000    0.21030    0.25000    1.000
    C233     C        0.66420    0.30060    0.25000    1.000
    C234     C        0.63110    0.30100    0.25000    1.000
    Zn17     Zn       0.89771    0.57772    0.25000    1.000
    Zn18     Zn       0.93334    0.52402    0.25000    1.000
    O67      O        0.94550    0.57680    0.25000    1.000
    O68      O        0.88110    0.48780    0.25000    1.000
    O69      O        0.85960    0.52360    0.25000    1.000
    C235     C        0.85070    0.49180    0.25000    1.000
    C236     C        0.81440    0.45750    0.25000    1.000
    C237     C        0.80710    0.42060    0.25000    1.000
    H81      H        0.82720    0.41570    0.25000    1.000
    C238     C        0.77030    0.39100    0.25000    1.000
    H82      H        0.76540    0.36610    0.25000    1.000
    C239     C        0.74070    0.39830    0.25000    1.000
    C240     C        0.74790    0.43510    0.25000    1.000
    H83      H        0.72790    0.44000    0.25000    1.000
    C241     C        0.78480    0.46470    0.25000    1.000
    H84      H        0.78970    0.48970    0.25000    1.000
    C242     C        0.69940    0.36360    0.25000    1.000
    C243     C        0.69900    0.33010    0.25000    1.000
    Zn19     Zn       0.57772    0.68001    0.75000    1.000
    Zn20     Zn       0.52402    0.59068    0.75000    1.000
    O70      O        0.57680    0.63130    0.75000    1.000
    O71      O        0.48780    0.60670    0.75000    1.000
    O72      O        0.52360    0.66400    0.75000    1.000
    C244     C        0.49180    0.64110    0.75000    1.000
    C245     C        0.45750    0.64310    0.75000    1.000
    C246     C        0.42060    0.61350    0.75000    1.000
    H85      H        0.41570    0.58850    0.75000    1.000
    C247     C        0.39100    0.62070    0.75000    1.000
    H86      H        0.36610    0.60070    0.75000    1.000
    C248     C        0.39830    0.65760    0.75000    1.000
    C249     C        0.43510    0.68720    0.75000    1.000
    H87      H        0.44000    0.71210    0.75000    1.000
    C250     C        0.46470    0.67990    0.75000    1.000
    H88      H        0.48970    0.70000    0.75000    1.000
    C251     C        0.36360    0.66420    0.75000    1.000
    C252     C        0.33010    0.63110    0.75000    1.000
    Zn21     Zn       0.31999    0.89771    0.75000    1.000
    Zn22     Zn       0.40932    0.93334    0.75000    1.000
    O73      O        0.36870    0.94550    0.75000    1.000
    O74      O        0.39330    0.88110    0.75000    1.000
    O75      O        0.33600    0.85960    0.75000    1.000
    C253     C        0.35890    0.85070    0.75000    1.000
    C254     C        0.35690    0.81440    0.75000    1.000
    C255     C        0.38650    0.80710    0.75000    1.000
    H89      H        0.41150    0.82720    0.75000    1.000
    C256     C        0.37930    0.77030    0.75000    1.000
    H90      H        0.39930    0.76540    0.75000    1.000
    C257     C        0.34240    0.74070    0.75000    1.000
    C258     C        0.31280    0.74790    0.75000    1.000
    H91      H        0.28790    0.72790    0.75000    1.000
    C259     C        0.32010    0.78480    0.75000    1.000
    H92      H        0.30000    0.78970    0.75000    1.000
    C260     C        0.33580    0.69940    0.75000    1.000
    C261     C        0.36890    0.69900    0.75000    1.000
    Zn23     Zn       0.10229    0.42228    0.75000    1.000
    Zn24     Zn       0.06666    0.47598    0.75000    1.000
    O76      O        0.05450    0.42320    0.75000    1.000
    O77      O        0.11890    0.51220    0.75000    1.000
    O78      O        0.14040    0.47640    0.75000    1.000
    C262     C        0.14930    0.50820    0.75000    1.000
    C263     C        0.18560    0.54250    0.75000    1.000
    C264     C        0.19290    0.57940    0.75000    1.000
    H93      H        0.17280    0.58430    0.75000    1.000
    C265     C        0.22970    0.60900    0.75000    1.000
    H94      H        0.23460    0.63390    0.75000    1.000
    C266     C        0.25930    0.60170    0.75000    1.000
    C267     C        0.25210    0.56490    0.75000    1.000
    H95      H        0.27210    0.56000    0.75000    1.000
    C268     C        0.21520    0.53530    0.75000    1.000
    H96      H        0.21030    0.51030    0.75000    1.000
    C269     C        0.30060    0.63640    0.75000    1.000
    C270     C        0.30100    0.66990    0.75000    1.000
    C271     C        0.37580    0.24530    0.75000    1.000
    H97      H        0.37460    0.26760    0.75000    1.000
    C272     C        0.37640    0.17470    0.75000    1.000
    C273     C        0.37700    0.13790    0.75000    1.000
    C274     C        0.37150    0.07120    0.75000    1.000
    C275     C        0.37680    0.03420    0.75000    1.000
    C276     C        0.75470    0.13050    0.75000    1.000
    H98      H        0.73240    0.10700    0.75000    1.000
    C277     C        0.82530    0.20170    0.75000    1.000
    C278     C        0.86210    0.23910    0.75000    1.000
    C279     C        0.92880    0.30030    0.75000    1.000
    C280     C        0.96580    0.34260    0.75000    1.000
    C281     C        0.86950    0.62420    0.75000    1.000
    H99      H        0.89300    0.62540    0.75000    1.000
    C282     C        0.79830    0.62360    0.75000    1.000
    C283     C        0.76090    0.62300    0.75000    1.000
    C284     C        0.69970    0.62850    0.75000    1.000
    C285     C        0.65740    0.62320    0.75000    1.000
    C286     C        0.62420    0.75470    0.25000    1.000
    H100     H        0.62540    0.73240    0.25000    1.000
    C287     C        0.62360    0.82530    0.25000    1.000
    C288     C        0.62300    0.86210    0.25000    1.000
    C289     C        0.62850    0.92880    0.25000    1.000
    C290     C        0.62320    0.96580    0.25000    1.000
    C291     C        0.24530    0.86950    0.25000    1.000
    H101     H        0.26760    0.89300    0.25000    1.000
    C292     C        0.17470    0.79830    0.25000    1.000
    C293     C        0.13790    0.76090    0.25000    1.000
    C294     C        0.07120    0.69970    0.25000    1.000
    C295     C        0.03420    0.65740    0.25000    1.000
    C296     C        0.13050    0.37580    0.25000    1.000
    H102     H        0.10700    0.37460    0.25000    1.000
    C297     C        0.20170    0.37640    0.25000    1.000
    C298     C        0.23910    0.37700    0.25000    1.000
    C299     C        0.30030    0.37150    0.25000    1.000
    C300     C        0.34260    0.37680    0.25000    1.000
