# CIF file generated by openbabel 3.1.0, see https://openbabel.org
data_I
_chemical_name_common 'DOQHOH_clean'
_cell_length_a 7.2351
_cell_length_b 10.1999
_cell_length_c 13.055
_cell_angle_alpha 90
_cell_angle_beta 90
_cell_angle_gamma 100.427
_space_group_name_H-M_alt 'P 1'
_space_group_name_Hall 'P 1'
loop_
    _symmetry_equiv_pos_as_xyz
    x,y,z
loop_
    _atom_site_label
    _atom_site_type_symbol
    _atom_site_fract_x
    _atom_site_fract_y
    _atom_site_fract_z
    _atom_site_occupancy
    Sm1      Sm       0.16364    0.28216    0.90595    1.000
    Sm2      Sm       0.83636    0.21784    0.40595    1.000
    Sm3      Sm       0.83636    0.71784    0.09405    1.000
    Sm4      Sm       0.16364    0.78216    0.59405    1.000
    P1       P        0.78841    0.06941    0.04910    1.000
    P2       P        0.21159    0.43059    0.54910    1.000
    P3       P        0.21159    0.93059    0.95090    1.000
    P4       P        0.78841    0.56941    0.45090    1.000
    H1       H        0.59300    0.18610    0.04410    1.000
    H2       H        0.86590    0.99930    0.26010    1.000
    H3       H        0.05730    0.08510    0.15070    1.000
    H4       H        0.40700    0.31390    0.54410    1.000
    H5       H        0.13410    0.50070    0.76010    1.000
    H6       H        0.94270    0.41490    0.65070    1.000
    H7       H        0.40700    0.81390    0.95590    1.000
    H8       H        0.13410    0.00070    0.73990    1.000
    H9       H        0.94270    0.91490    0.84930    1.000
    H10      H        0.59300    0.68610    0.45590    1.000
    H11      H        0.86590    0.49930    0.23990    1.000
    H12      H        0.05730    0.58510    0.34930    1.000
    C1       C        0.94370    0.12430    0.15700    1.000
    C2       C        0.00000    0.27440    0.16380    1.000
    C3       C        0.45320    0.55490    0.97580    1.000
    C4       C        0.05630    0.37570    0.65700    1.000
    C5       C        0.00000    0.22560    0.66380    1.000
    C6       C        0.54680    0.94510    0.47580    1.000
    C7       C        0.05630    0.87570    0.84300    1.000
    C8       C        0.00000    0.72560    0.83620    1.000
    C9       C        0.54680    0.44510    0.02420    1.000
    C10      C        0.94370    0.62430    0.34300    1.000
    C11      C        0.00000    0.77440    0.33620    1.000
    C12      C        0.45320    0.05490    0.52420    1.000
    O1       O        0.60370    0.12180    0.07990    1.000
    O2       O        0.87170    0.13180    0.95160    1.000
    O3       O        0.74650    0.92050    0.05370    1.000
    O4       O        0.84460    0.07390    0.24750    1.000
    O5       O        0.08130    0.33360    0.08740    1.000
    O6       O        0.96100    0.33060    0.24500    1.000
    O7       O        0.30310    0.51830    0.92810    1.000
    O8       O        0.53400    0.67270    0.99050    1.000
    O9       O        0.39630    0.37820    0.57990    1.000
    O10      O        0.12830    0.36820    0.45160    1.000
    O11      O        0.25350    0.57950    0.55370    1.000
    O12      O        0.15540    0.42610    0.74750    1.000
    O13      O        0.91870    0.16640    0.58740    1.000
    O14      O        0.03900    0.16940    0.74500    1.000
    O15      O        0.69690    0.98170    0.42810    1.000
    O16      O        0.46600    0.82730    0.49050    1.000
    O17      O        0.39630    0.87820    0.92010    1.000
    O18      O        0.12830    0.86820    0.04840    1.000
    O19      O        0.25350    0.07950    0.94630    1.000
    O20      O        0.15540    0.92610    0.75250    1.000
    O21      O        0.91870    0.66640    0.91260    1.000
    O22      O        0.03900    0.66940    0.75500    1.000
    O23      O        0.69690    0.48170    0.07190    1.000
    O24      O        0.46600    0.32730    0.00950    1.000
    O25      O        0.60370    0.62180    0.42010    1.000
    O26      O        0.87170    0.63180    0.54840    1.000
    O27      O        0.74650    0.42050    0.44630    1.000
    O28      O        0.84460    0.57390    0.25250    1.000
    O29      O        0.08130    0.83360    0.41260    1.000
    O30      O        0.96100    0.83060    0.25500    1.000
    O31      O        0.30310    0.01830    0.57190    1.000
    O32      O        0.53400    0.17270    0.50950    1.000
