# CIF file generated by openbabel 3.1.0, see https://openbabel.org
data_I
_chemical_name_common 'image0'
_cell_length_a 30.514
_cell_length_b 15.6715
_cell_length_c 22.003
_cell_angle_alpha 90
_cell_angle_beta 133.025
_cell_angle_gamma 90
_space_group_name_H-M_alt 'P 1'
_space_group_name_Hall 'P 1'
loop_
    _symmetry_equiv_pos_as_xyz
    x,y,z
loop_
    _atom_site_label
    _atom_site_type_symbol
    _atom_site_fract_x
    _atom_site_fract_y
    _atom_site_fract_z
    _atom_site_occupancy
    Nd1      Nd       0.89001    0.63619    0.32591    1.000
    Nd2      Nd       0.83078    0.62795    0.98548    1.000
    N1       N        0.83810    0.49740    0.24180    1.000
    N2       N        0.63400    0.73420    0.03580    1.000
    O1       O        0.86690    0.53030    0.38280    1.000
    O2       O        0.82810    0.40410    0.37550    1.000
    O3       O        0.87620    0.61540    0.20340    1.000
    O4       O        0.84040    0.54750    0.08880    1.000
    O5       O        0.74900    0.76870    0.12910    1.000
    O6       O        0.77720    0.65310    0.20410    1.000
    O7       O        0.56000    0.85580    0.93030    1.000
    O8       O        0.48100    0.78480    0.88800    1.000
    O9       O        0.84120    0.70420    0.36850    1.000
    H1       H        0.85690    0.75060    0.37130    1.000
    H2       H        0.80340    0.71140    0.33340    1.000
    O10      O        0.86750    0.78100    0.26360    1.000
    H3       H        0.83080    0.79500    0.23250    1.000
    H4       H        0.88620    0.80230    0.31130    1.000
    C1       C        0.83800    0.46050    0.34710    1.000
    C2       C        0.81470    0.44440    0.26170    1.000
    C3       C        0.77470    0.38180    0.20820    1.000
    H5       H        0.75940    0.34550    0.22340    1.000
    C4       C        0.75720    0.37260    0.13240    1.000
    H6       H        0.72740    0.33430    0.09290    1.000
    C5       C        0.78720    0.42480    0.11710    1.000
    H7       H        0.78060    0.41600    0.06960    1.000
    C6       C        0.82590    0.48830    0.17260    1.000
    C7       C        0.84940    0.55360    0.15340    1.000
    C8       C        0.73770    0.69910    0.14680    1.000
    C9       C        0.67380    0.67810    0.09320    1.000
    C10      C        0.65560    0.60120    0.10560    1.000
    H8       H        0.68350    0.56250    0.14700    1.000
    C11      C        0.59440    0.58700    0.05320    1.000
    H9       H        0.58090    0.53620    0.05750    1.000
    C12      C        0.55280    0.64750    0.99440    1.000
    H10      H        0.51180    0.63970    0.96080    1.000
    C13      C        0.57650    0.72110    0.98860    1.000
    C14      C        0.53570    0.79250    0.92910    1.000
    Nd3      Nd       0.39001    0.13619    0.32591    1.000
    Nd4      Nd       0.33078    0.12795    0.98548    1.000
    N3       N        0.33810    0.99740    0.24180    1.000
    N4       N        0.13400    0.23420    0.03580    1.000
    O11      O        0.36690    0.03030    0.38280    1.000
    O12      O        0.32810    0.90410    0.37550    1.000
    O13      O        0.37620    0.11540    0.20340    1.000
    O14      O        0.34040    0.04750    0.08880    1.000
    O15      O        0.24900    0.26870    0.12910    1.000
    O16      O        0.27720    0.15310    0.20410    1.000
    O17      O        0.06000    0.35580    0.93030    1.000
    O18      O        0.98100    0.28480    0.88800    1.000
    O19      O        0.34120    0.20420    0.36850    1.000
    H11      H        0.35690    0.25060    0.37130    1.000
    H12      H        0.30340    0.21140    0.33340    1.000
    O20      O        0.36750    0.28100    0.26360    1.000
    H13      H        0.33080    0.29500    0.23250    1.000
    H14      H        0.38620    0.30230    0.31130    1.000
    C15      C        0.33800    0.96050    0.34710    1.000
    C16      C        0.31470    0.94440    0.26170    1.000
    C17      C        0.27470    0.88180    0.20820    1.000
    H15      H        0.25940    0.84550    0.22340    1.000
    C18      C        0.25720    0.87260    0.13240    1.000
    H16      H        0.22740    0.83430    0.09290    1.000
    C19      C        0.28720    0.92480    0.11710    1.000
    H17      H        0.28060    0.91600    0.06960    1.000
    C20      C        0.32590    0.98830    0.17260    1.000
    C21      C        0.34940    0.05360    0.15340    1.000
    C22      C        0.23770    0.19910    0.14680    1.000
    C23      C        0.17380    0.17810    0.09320    1.000
    C24      C        0.15560    0.10120    0.10560    1.000
    H18      H        0.18350    0.06250    0.14700    1.000
    C25      C        0.09440    0.08700    0.05320    1.000
    H19      H        0.08090    0.03620    0.05750    1.000
    C26      C        0.05280    0.14750    0.99440    1.000
    H20      H        0.01180    0.13970    0.96080    1.000
    C27      C        0.07650    0.22110    0.98860    1.000
    C28      C        0.03570    0.29250    0.92910    1.000
    Nd5      Nd       0.10999    0.63619    0.17409    1.000
    Nd6      Nd       0.16922    0.62795    0.51452    1.000
    N5       N        0.16190    0.49740    0.25820    1.000
    N6       N        0.36600    0.73420    0.46420    1.000
    O21      O        0.13310    0.53030    0.11720    1.000
    O22      O        0.17190    0.40410    0.12450    1.000
    O23      O        0.12380    0.61540    0.29660    1.000
    O24      O        0.15960    0.54750    0.41120    1.000
    O25      O        0.25100    0.76870    0.37090    1.000
    O26      O        0.22280    0.65310    0.29590    1.000
    O27      O        0.44000    0.85580    0.56970    1.000
    O28      O        0.51900    0.78480    0.61200    1.000
    O29      O        0.15880    0.70420    0.13150    1.000
    H21      H        0.14310    0.75060    0.12870    1.000
    H22      H        0.19660    0.71140    0.16660    1.000
    O30      O        0.13250    0.78100    0.23640    1.000
    H23      H        0.16920    0.79500    0.26750    1.000
    H24      H        0.11380    0.80230    0.18870    1.000
    C29      C        0.16200    0.46050    0.15290    1.000
    C30      C        0.18530    0.44440    0.23830    1.000
    C31      C        0.22530    0.38180    0.29180    1.000
    H25      H        0.24060    0.34550    0.27660    1.000
    C32      C        0.24280    0.37260    0.36760    1.000
    H26      H        0.27260    0.33430    0.40710    1.000
    C33      C        0.21280    0.42480    0.38290    1.000
    H27      H        0.21940    0.41600    0.43040    1.000
    C34      C        0.17410    0.48830    0.32740    1.000
    C35      C        0.15060    0.55360    0.34660    1.000
    C36      C        0.26230    0.69910    0.35320    1.000
    C37      C        0.32620    0.67810    0.40680    1.000
    C38      C        0.34440    0.60120    0.39440    1.000
    H28      H        0.31650    0.56250    0.35300    1.000
    C39      C        0.40560    0.58700    0.44680    1.000
    H29      H        0.41910    0.53620    0.44250    1.000
    C40      C        0.44720    0.64750    0.50560    1.000
    H30      H        0.48820    0.63970    0.53920    1.000
    C41      C        0.42350    0.72110    0.51140    1.000
    C42      C        0.46430    0.79250    0.57090    1.000
    Nd7      Nd       0.60999    0.13619    0.17409    1.000
    Nd8      Nd       0.66922    0.12795    0.51452    1.000
    N7       N        0.66190    0.99740    0.25820    1.000
    N8       N        0.86600    0.23420    0.46420    1.000
    O31      O        0.63310    0.03030    0.11720    1.000
    O32      O        0.67190    0.90410    0.12450    1.000
    O33      O        0.62380    0.11540    0.29660    1.000
    O34      O        0.65960    0.04750    0.41120    1.000
    O35      O        0.75100    0.26870    0.37090    1.000
    O36      O        0.72280    0.15310    0.29590    1.000
    O37      O        0.94000    0.35580    0.56970    1.000
    O38      O        0.01900    0.28480    0.61200    1.000
    O39      O        0.65880    0.20420    0.13150    1.000
    H31      H        0.64310    0.25060    0.12870    1.000
    H32      H        0.69660    0.21140    0.16660    1.000
    O40      O        0.63250    0.28100    0.23640    1.000
    H33      H        0.66920    0.29500    0.26750    1.000
    H34      H        0.61380    0.30230    0.18870    1.000
    C43      C        0.66200    0.96050    0.15290    1.000
    C44      C        0.68530    0.94440    0.23830    1.000
    C45      C        0.72530    0.88180    0.29180    1.000
    H35      H        0.74060    0.84550    0.27660    1.000
    C46      C        0.74280    0.87260    0.36760    1.000
    H36      H        0.77260    0.83430    0.40710    1.000
    C47      C        0.71280    0.92480    0.38290    1.000
    H37      H        0.71940    0.91600    0.43040    1.000
    C48      C        0.67410    0.98830    0.32740    1.000
    C49      C        0.65060    0.05360    0.34660    1.000
    C50      C        0.76230    0.19910    0.35320    1.000
    C51      C        0.82620    0.17810    0.40680    1.000
    C52      C        0.84440    0.10120    0.39440    1.000
    H38      H        0.81650    0.06250    0.35300    1.000
    C53      C        0.90560    0.08700    0.44680    1.000
    H39      H        0.91910    0.03620    0.44250    1.000
    C54      C        0.94720    0.14750    0.50560    1.000
    H40      H        0.98820    0.13970    0.53920    1.000
    C55      C        0.92350    0.22110    0.51140    1.000
    C56      C        0.96430    0.29250    0.57090    1.000
    Nd9      Nd       0.10999    0.36381    0.67409    1.000
    Nd10     Nd       0.16922    0.37205    0.01452    1.000
    N9       N        0.16190    0.50260    0.75820    1.000
    N10      N        0.36600    0.26580    0.96420    1.000
    O41      O        0.13310    0.46970    0.61720    1.000
    O42      O        0.17190    0.59590    0.62450    1.000
    O43      O        0.12380    0.38460    0.79660    1.000
    O44      O        0.15960    0.45250    0.91120    1.000
    O45      O        0.25100    0.23130    0.87090    1.000
    O46      O        0.22280    0.34690    0.79590    1.000
    O47      O        0.44000    0.14420    0.06970    1.000
    O48      O        0.51900    0.21520    0.11200    1.000
    O49      O        0.15880    0.29580    0.63150    1.000
    H41      H        0.14310    0.24940    0.62870    1.000
    H42      H        0.19660    0.28860    0.66660    1.000
    O50      O        0.13250    0.21900    0.73640    1.000
    H43      H        0.16920    0.20500    0.76750    1.000
    H44      H        0.11380    0.19770    0.68870    1.000
    C57      C        0.16200    0.53950    0.65290    1.000
    C58      C        0.18530    0.55560    0.73830    1.000
    C59      C        0.22530    0.61820    0.79180    1.000
    H45      H        0.24060    0.65450    0.77660    1.000
    C60      C        0.24280    0.62740    0.86760    1.000
    H46      H        0.27260    0.66570    0.90710    1.000
    C61      C        0.21280    0.57520    0.88290    1.000
    H47      H        0.21940    0.58400    0.93040    1.000
    C62      C        0.17410    0.51170    0.82740    1.000
    C63      C        0.15060    0.44640    0.84660    1.000
    C64      C        0.26230    0.30090    0.85320    1.000
    C65      C        0.32620    0.32190    0.90680    1.000
    C66      C        0.34440    0.39880    0.89440    1.000
    H48      H        0.31650    0.43750    0.85300    1.000
    C67      C        0.40560    0.41300    0.94680    1.000
    H49      H        0.41910    0.46380    0.94250    1.000
    C68      C        0.44720    0.35250    0.00560    1.000
    H50      H        0.48820    0.36030    0.03920    1.000
    C69      C        0.42350    0.27890    0.01140    1.000
    C70      C        0.46430    0.20750    0.07090    1.000
    Nd11     Nd       0.60999    0.86381    0.67409    1.000
    Nd12     Nd       0.66922    0.87205    0.01452    1.000
    N11      N        0.66190    0.00260    0.75820    1.000
    N12      N        0.86600    0.76580    0.96420    1.000
    O51      O        0.63310    0.96970    0.61720    1.000
    O52      O        0.67190    0.09590    0.62450    1.000
    O53      O        0.62380    0.88460    0.79660    1.000
    O54      O        0.65960    0.95250    0.91120    1.000
    O55      O        0.75100    0.73130    0.87090    1.000
    O56      O        0.72280    0.84690    0.79590    1.000
    O57      O        0.94000    0.64420    0.06970    1.000
    O58      O        0.01900    0.71520    0.11200    1.000
    O59      O        0.65880    0.79580    0.63150    1.000
    H51      H        0.64310    0.74940    0.62870    1.000
    H52      H        0.69660    0.78860    0.66660    1.000
    O60      O        0.63250    0.71900    0.73640    1.000
    H53      H        0.66920    0.70500    0.76750    1.000
    H54      H        0.61380    0.69770    0.68870    1.000
    C71      C        0.66200    0.03950    0.65290    1.000
    C72      C        0.68530    0.05560    0.73830    1.000
    C73      C        0.72530    0.11820    0.79180    1.000
    H55      H        0.74060    0.15450    0.77660    1.000
    C74      C        0.74280    0.12740    0.86760    1.000
    H56      H        0.77260    0.16570    0.90710    1.000
    C75      C        0.71280    0.07520    0.88290    1.000
    H57      H        0.71940    0.08400    0.93040    1.000
    C76      C        0.67410    0.01170    0.82740    1.000
    C77      C        0.65060    0.94640    0.84660    1.000
    C78      C        0.76230    0.80090    0.85320    1.000
    C79      C        0.82620    0.82190    0.90680    1.000
    C80      C        0.84440    0.89880    0.89440    1.000
    H58      H        0.81650    0.93750    0.85300    1.000
    C81      C        0.90560    0.91300    0.94680    1.000
    H59      H        0.91910    0.96380    0.94250    1.000
    C82      C        0.94720    0.85250    0.00560    1.000
    H60      H        0.98820    0.86030    0.03920    1.000
    C83      C        0.92350    0.77890    0.01140    1.000
    C84      C        0.96430    0.70750    0.07090    1.000
    Nd13     Nd       0.89001    0.36381    0.82591    1.000
    Nd14     Nd       0.83078    0.37205    0.48548    1.000
    N13      N        0.83810    0.50260    0.74180    1.000
    N14      N        0.63400    0.26580    0.53580    1.000
    O61      O        0.86690    0.46970    0.88280    1.000
    O62      O        0.82810    0.59590    0.87550    1.000
    O63      O        0.87620    0.38460    0.70340    1.000
    O64      O        0.84040    0.45250    0.58880    1.000
    O65      O        0.74900    0.23130    0.62910    1.000
    O66      O        0.77720    0.34690    0.70410    1.000
    O67      O        0.56000    0.14420    0.43030    1.000
    O68      O        0.48100    0.21520    0.38800    1.000
    O69      O        0.84120    0.29580    0.86850    1.000
    H61      H        0.85690    0.24940    0.87130    1.000
    H62      H        0.80340    0.28860    0.83340    1.000
    O70      O        0.86750    0.21900    0.76360    1.000
    H63      H        0.83080    0.20500    0.73250    1.000
    H64      H        0.88620    0.19770    0.81130    1.000
    C85      C        0.83800    0.53950    0.84710    1.000
    C86      C        0.81470    0.55560    0.76170    1.000
    C87      C        0.77470    0.61820    0.70820    1.000
    H65      H        0.75940    0.65450    0.72340    1.000
    C88      C        0.75720    0.62740    0.63240    1.000
    H66      H        0.72740    0.66570    0.59290    1.000
    C89      C        0.78720    0.57520    0.61710    1.000
    H67      H        0.78060    0.58400    0.56960    1.000
    C90      C        0.82590    0.51170    0.67260    1.000
    C91      C        0.84940    0.44640    0.65340    1.000
    C92      C        0.73770    0.30090    0.64680    1.000
    C93      C        0.67380    0.32190    0.59320    1.000
    C94      C        0.65560    0.39880    0.60560    1.000
    H68      H        0.68350    0.43750    0.64700    1.000
    C95      C        0.59440    0.41300    0.55320    1.000
    H69      H        0.58090    0.46380    0.55750    1.000
    C96      C        0.55280    0.35250    0.49440    1.000
    H70      H        0.51180    0.36030    0.46080    1.000
    C97      C        0.57650    0.27890    0.48860    1.000
    C98      C        0.53570    0.20750    0.42910    1.000
    Nd15     Nd       0.39001    0.86381    0.82591    1.000
    Nd16     Nd       0.33078    0.87205    0.48548    1.000
    N15      N        0.33810    0.00260    0.74180    1.000
    N16      N        0.13400    0.76580    0.53580    1.000
    O71      O        0.36690    0.96970    0.88280    1.000
    O72      O        0.32810    0.09590    0.87550    1.000
    O73      O        0.37620    0.88460    0.70340    1.000
    O74      O        0.34040    0.95250    0.58880    1.000
    O75      O        0.24900    0.73130    0.62910    1.000
    O76      O        0.27720    0.84690    0.70410    1.000
    O77      O        0.06000    0.64420    0.43030    1.000
    O78      O        0.98100    0.71520    0.38800    1.000
    O79      O        0.34120    0.79580    0.86850    1.000
    H71      H        0.35690    0.74940    0.87130    1.000
    H72      H        0.30340    0.78860    0.83340    1.000
    O80      O        0.36750    0.71900    0.76360    1.000
    H73      H        0.33080    0.70500    0.73250    1.000
    H74      H        0.38620    0.69770    0.81130    1.000
    C99      C        0.33800    0.03950    0.84710    1.000
    C100     C        0.31470    0.05560    0.76170    1.000
    C101     C        0.27470    0.11820    0.70820    1.000
    H75      H        0.25940    0.15450    0.72340    1.000
    C102     C        0.25720    0.12740    0.63240    1.000
    H76      H        0.22740    0.16570    0.59290    1.000
    C103     C        0.28720    0.07520    0.61710    1.000
    H77      H        0.28060    0.08400    0.56960    1.000
    C104     C        0.32590    0.01170    0.67260    1.000
    C105     C        0.34940    0.94640    0.65340    1.000
    C106     C        0.23770    0.80090    0.64680    1.000
    C107     C        0.17380    0.82190    0.59320    1.000
    C108     C        0.15560    0.89880    0.60560    1.000
    H78      H        0.18350    0.93750    0.64700    1.000
    C109     C        0.09440    0.91300    0.55320    1.000
    H79      H        0.08090    0.96380    0.55750    1.000
    C110     C        0.05280    0.85250    0.49440    1.000
    H80      H        0.01180    0.86030    0.46080    1.000
    C111     C        0.07650    0.77890    0.48860    1.000
    C112     C        0.03570    0.70750    0.42910    1.000
