# CIF file generated by openbabel 3.1.0, see https://openbabel.org
data_I
_chemical_name_common 'image0'
_cell_length_a 7.9415
_cell_length_b 13.846
_cell_length_c 7.3103
_cell_angle_alpha 90
_cell_angle_beta 90
_cell_angle_gamma 90
_space_group_name_H-M_alt 'P 1'
_space_group_name_Hall 'P 1'
loop_
    _symmetry_equiv_pos_as_xyz
    x,y,z
loop_
    _atom_site_label
    _atom_site_type_symbol
    _atom_site_fract_x
    _atom_site_fract_y
    _atom_site_fract_z
    _atom_site_occupancy
    Co1      Co       0.22060    0.33545    0.75941    1.000
    O1       O        0.10520    0.22859    0.60810    1.000
    O2       O        0.92690    0.16402    0.41200    1.000
    O3       O        0.30884    0.21194    0.90260    1.000
    O4       O        0.50562    0.14524    0.07730    1.000
    O5       O        0.11210    0.45290    0.61900    1.000
    O6       O        0.13161    0.57242    0.41890    1.000
    C1       C        0.98590    0.23363    0.49840    1.000
    H1       H        0.93610    0.29520    0.47910    1.000
    C2       C        0.44350    0.21428    0.99170    1.000
    H2       H        0.50320    0.27370    0.99410    1.000
    C3       C        0.19330    0.50449    0.50870    1.000
    H3       H        0.30960    0.49090    0.49260    1.000
    Co2      Co       0.27940    0.66455    0.25941    1.000
    O7       O        0.39480    0.77141    0.10810    1.000
    O8       O        0.57310    0.83598    0.91200    1.000
    O9       O        0.19116    0.78806    0.40260    1.000
    O10      O        0.99438    0.85476    0.57730    1.000
    O11      O        0.38790    0.54710    0.11900    1.000
    O12      O        0.36839    0.42758    0.91890    1.000
    C4       C        0.51410    0.76637    0.99840    1.000
    H4       H        0.56390    0.70480    0.97910    1.000
    C5       C        0.05650    0.78572    0.49170    1.000
    H5       H        0.99680    0.72630    0.49410    1.000
    C6       C        0.30670    0.49551    0.00870    1.000
    H6       H        0.19040    0.50910    0.99260    1.000
    Co3      Co       0.77940    0.83545    0.74059    1.000
    O13      O        0.89480    0.72859    0.89190    1.000
    O14      O        0.07310    0.66402    0.08800    1.000
    O15      O        0.69116    0.71194    0.59740    1.000
    O16      O        0.49438    0.64524    0.42270    1.000
    O17      O        0.88790    0.95290    0.88100    1.000
    O18      O        0.86839    0.07242    0.08110    1.000
    C7       C        0.01410    0.73363    0.00160    1.000
    H7       H        0.06390    0.79520    0.02090    1.000
    C8       C        0.55650    0.71428    0.50830    1.000
    H8       H        0.49680    0.77370    0.50590    1.000
    C9       C        0.80670    0.00449    0.99130    1.000
    H9       H        0.69040    0.99090    0.00740    1.000
    Co4      Co       0.72060    0.16455    0.24059    1.000
    O19      O        0.60520    0.27141    0.39190    1.000
    O20      O        0.42690    0.33598    0.58800    1.000
    O21      O        0.80884    0.28806    0.09740    1.000
    O22      O        0.00562    0.35476    0.92270    1.000
    O23      O        0.61210    0.04710    0.38100    1.000
    O24      O        0.63161    0.92758    0.58110    1.000
    C10      C        0.48590    0.26637    0.50160    1.000
    H10      H        0.43610    0.20480    0.52090    1.000
    C11      C        0.94350    0.28572    0.00830    1.000
    H11      H        0.00320    0.22630    0.00590    1.000
    C12      C        0.69330    0.99551    0.49130    1.000
    H12      H        0.80960    0.00910    0.50740    1.000
