# CIF file generated by openbabel 3.1.0, see https://openbabel.org
data_I
_chemical_name_common 'image0'
_cell_length_a 42.347
_cell_length_b 8.569
_cell_length_c 14.49
_cell_angle_alpha 90
_cell_angle_beta 108.758
_cell_angle_gamma 90
_space_group_name_H-M_alt 'P 1'
_space_group_name_Hall 'P 1'
loop_
    _symmetry_equiv_pos_as_xyz
    x,y,z
loop_
    _atom_site_label
    _atom_site_type_symbol
    _atom_site_fract_x
    _atom_site_fract_y
    _atom_site_fract_z
    _atom_site_occupancy
    C1       C        0.19526    0.24330    0.59730    1.000
    C2       C        0.16319    0.16140    0.57030    1.000
    H1       H        0.16100    0.09600    0.51480    1.000
    H2       H        0.14540    0.23630    0.55440    1.000
    H3       H        0.16210    0.09830    0.62400    1.000
    C3       C        0.23636    0.39620    0.67600    1.000
    C4       C        0.25673    0.50610    0.75040    1.000
    H4       H        0.24470    0.53500    0.79380    1.000
    H5       H        0.27730    0.45680    0.78680    1.000
    H6       H        0.26130    0.59780    0.71890    1.000
    C5       C        0.16031    0.88910    0.33550    1.000
    C6       C        0.07231    0.53350    0.16900    1.000
    C7       C        0.98876    0.19370    0.96330    1.000
    C8       C        0.89862    0.86380    0.78060    1.000
    C9       C        0.82181    0.72750    0.88940    1.000
    C10      C        0.84035    0.59710    0.63350    1.000
    N1       N        0.20590    0.34450    0.67300    1.000
    N2       N        0.21826    0.23310    0.55500    1.000
    N3       N        0.18768    0.38440    0.73480    1.000
    H7       H        0.19580    0.44940    0.78170    1.000
    H8       H        0.16830    0.34400    0.72590    1.000
    N4       N        0.24460    0.33140    0.60520    1.000
    C11      C        0.17998    0.98290    0.36920    1.000
    C12      C        0.09435    0.61240    0.20850    1.000
    C13      C        0.00692    0.27510    0.01800    1.000
    C14      C        0.92244    0.93620    0.81510    1.000
    C15      C        0.83246    0.75300    0.82760    1.000
    C16      C        0.82929    0.49370    0.58370    1.000
    C17      C        0.76282    0.72820    0.00010    1.000
    Cu1      Cu       0.21458    0.12283    0.43099    1.000
    Cu2      Cu       0.13044    0.73638    0.27190    1.000
    Cu3      Cu       0.03806    0.40346    0.10173    1.000
    Cu4      Cu       0.95850    0.06148    0.87917    1.000
    Cu5      Cu       0.85669    0.75516    0.73085    1.000
    Cu6      Cu       0.80521    0.66764    0.99146    1.000
    N5       N        0.33969    0.61090    0.66450    1.000
    N6       N        0.42769    0.96650    0.83100    1.000
    N7       N        0.60138    0.63620    0.21940    1.000
    N8       N        0.67819    0.77250    0.11060    1.000
    N9       N        0.49308    0.22490    0.98200    1.000
    N10      N        0.82929    0.50630    0.08370    1.000
    C18      C        0.30474    0.74330    0.90270    1.000
    C19      C        0.33681    0.66140    0.92970    1.000
    H9       H        0.33900    0.59600    0.98520    1.000
    H10      H        0.35460    0.73630    0.94560    1.000
    H11      H        0.33790    0.59830    0.87600    1.000
    C20      C        0.26364    0.89620    0.82400    1.000
    C21      C        0.24327    0.00610    0.74960    1.000
    H12      H        0.25530    0.03500    0.70620    1.000
    H13      H        0.22270    0.95680    0.71320    1.000
    H14      H        0.23870    0.09780    0.78110    1.000
    C22      C        0.33969    0.38910    0.16450    1.000
    C23      C        0.42769    0.03350    0.33100    1.000
    C24      C        0.51124    0.69370    0.53670    1.000
    C25      C        0.60138    0.36380    0.71940    1.000
    C26      C        0.67819    0.22750    0.61060    1.000
    C27      C        0.65965    0.09710    0.86650    1.000
    N11      N        0.29410    0.84450    0.82700    1.000
    N12      N        0.28174    0.73310    0.94500    1.000
    N13      N        0.31232    0.88440    0.76520    1.000
    H15      H        0.30420    0.94940    0.71830    1.000
    H16      H        0.33170    0.84400    0.77410    1.000
    N14      N        0.25540    0.83140    0.89480    1.000
    C28      C        0.32002    0.48290    0.13080    1.000
    C29      C        0.40565    0.11240    0.29150    1.000
    C30      C        0.49308    0.77510    0.48200    1.000
    C31      C        0.57756    0.43620    0.68490    1.000
    C32      C        0.66754    0.25300    0.67240    1.000
    C33      C        0.67071    0.99370    0.91630    1.000
    C34      C        0.73718    0.22820    0.49990    1.000
    Cu7      Cu       0.28542    0.62283    0.06901    1.000
    Cu8      Cu       0.36956    0.23638    0.22810    1.000
    Cu9      Cu       0.46194    0.90346    0.39827    1.000
    Cu10     Cu       0.54150    0.56148    0.62083    1.000
    Cu11     Cu       0.64331    0.25516    0.76915    1.000
    Cu12     Cu       0.69479    0.16764    0.50854    1.000
    N15      N        0.16031    0.11090    0.83550    1.000
    N16      N        0.07231    0.46650    0.66900    1.000
    N17      N        0.89862    0.13620    0.28060    1.000
    N18      N        0.82181    0.27250    0.38940    1.000
    N19      N        0.00692    0.72490    0.51800    1.000
    N20      N        0.67071    0.00630    0.41630    1.000
    C35      C        0.30474    0.25670    0.40270    1.000
    C36      C        0.33681    0.33860    0.42970    1.000
    H17      H        0.33900    0.40400    0.48520    1.000
    H18      H        0.35460    0.26370    0.44560    1.000
    H19      H        0.33790    0.40170    0.37600    1.000
    C37      C        0.26364    0.10380    0.32400    1.000
    C38      C        0.24327    0.99390    0.24960    1.000
    H20      H        0.25530    0.96500    0.20620    1.000
    H21      H        0.22270    0.04320    0.21320    1.000
    H22      H        0.23870    0.90220    0.28110    1.000
    C39      C        0.51124    0.30630    0.03670    1.000
    C40      C        0.65965    0.90290    0.36650    1.000
    N21      N        0.29410    0.15550    0.32700    1.000
    N22      N        0.28174    0.26690    0.44500    1.000
    N23      N        0.31232    0.11560    0.26520    1.000
    H23      H        0.30420    0.05060    0.21830    1.000
    H24      H        0.33170    0.15600    0.27410    1.000
    N24      N        0.25540    0.16860    0.39480    1.000
    C41      C        0.32002    0.51710    0.63080    1.000
    C42      C        0.40565    0.88760    0.79150    1.000
    C43      C        0.57756    0.56380    0.18490    1.000
    C44      C        0.66754    0.74700    0.17240    1.000
    C45      C        0.73718    0.77180    0.99990    1.000
    Cu13     Cu       0.28542    0.37717    0.56901    1.000
    Cu14     Cu       0.36956    0.76362    0.72810    1.000
    Cu15     Cu       0.46194    0.09654    0.89827    1.000
    Cu16     Cu       0.54150    0.43852    0.12083    1.000
    Cu17     Cu       0.64331    0.74484    0.26915    1.000
    Cu18     Cu       0.69479    0.83236    0.00854    1.000
    C46      C        0.19526    0.75670    0.09730    1.000
    C47      C        0.16319    0.83860    0.07030    1.000
    H25      H        0.16100    0.90400    0.01480    1.000
    H26      H        0.14540    0.76370    0.05440    1.000
    H27      H        0.16210    0.90170    0.12400    1.000
    C48      C        0.23636    0.60380    0.17600    1.000
    C49      C        0.25673    0.49390    0.25040    1.000
    H28      H        0.24470    0.46500    0.29380    1.000
    H29      H        0.27730    0.54320    0.28680    1.000
    H30      H        0.26130    0.40220    0.21890    1.000
    C50      C        0.98876    0.80630    0.46330    1.000
    C51      C        0.84035    0.40290    0.13350    1.000
    N25      N        0.20590    0.65550    0.17300    1.000
    N26      N        0.21826    0.76690    0.05500    1.000
    N27      N        0.18768    0.61560    0.23480    1.000
    H31      H        0.19580    0.55060    0.28170    1.000
    H32      H        0.16830    0.65600    0.22590    1.000
    N28      N        0.24460    0.66860    0.10520    1.000
    C52      C        0.17998    0.01710    0.86920    1.000
    C53      C        0.09435    0.38760    0.70850    1.000
    C54      C        0.92244    0.06380    0.31510    1.000
    C55      C        0.83246    0.24700    0.32760    1.000
    C56      C        0.76282    0.27180    0.50010    1.000
    Cu19     Cu       0.21458    0.87717    0.93099    1.000
    Cu20     Cu       0.13044    0.26362    0.77190    1.000
    Cu21     Cu       0.03806    0.59654    0.60173    1.000
    Cu22     Cu       0.95850    0.93852    0.37917    1.000
    Cu23     Cu       0.85669    0.24484    0.23085    1.000
    Cu24     Cu       0.80521    0.33236    0.49146    1.000
    C57      C        0.69526    0.74330    0.59730    1.000
    C58      C        0.66319    0.66140    0.57030    1.000
    H33      H        0.66100    0.59600    0.51480    1.000
    H34      H        0.64540    0.73630    0.55440    1.000
    H35      H        0.66210    0.59830    0.62400    1.000
    C59      C        0.73636    0.89620    0.67600    1.000
    C60      C        0.75673    0.00610    0.75040    1.000
    H36      H        0.74470    0.03500    0.79380    1.000
    H37      H        0.77730    0.95680    0.78680    1.000
    H38      H        0.76130    0.09780    0.71890    1.000
    C61      C        0.66031    0.38910    0.33550    1.000
    C62      C        0.57231    0.03350    0.16900    1.000
    C63      C        0.48876    0.69370    0.96330    1.000
    C64      C        0.39862    0.36380    0.78060    1.000
    C65      C        0.32181    0.22750    0.88940    1.000
    C66      C        0.34035    0.09710    0.63350    1.000
    N29      N        0.70590    0.84450    0.67300    1.000
    N30      N        0.71826    0.73310    0.55500    1.000
    N31      N        0.68768    0.88440    0.73480    1.000
    H39      H        0.69580    0.94940    0.78170    1.000
    H40      H        0.66830    0.84400    0.72590    1.000
    N32      N        0.74460    0.83140    0.60520    1.000
    C67      C        0.67998    0.48290    0.36920    1.000
    C68      C        0.59435    0.11240    0.20850    1.000
    C69      C        0.50692    0.77510    0.01800    1.000
    C70      C        0.42244    0.43620    0.81510    1.000
    C71      C        0.33246    0.25300    0.82760    1.000
    C72      C        0.32929    0.99370    0.58370    1.000
    C73      C        0.26282    0.22820    0.00010    1.000
    Cu25     Cu       0.71458    0.62283    0.43099    1.000
    Cu26     Cu       0.63044    0.23638    0.27190    1.000
    Cu27     Cu       0.53807    0.90346    0.10173    1.000
    Cu28     Cu       0.45850    0.56148    0.87917    1.000
    Cu29     Cu       0.35669    0.25516    0.73085    1.000
    Cu30     Cu       0.30521    0.16764    0.99146    1.000
    N33      N        0.83969    0.11090    0.66450    1.000
    N34      N        0.92769    0.46650    0.83100    1.000
    N35      N        0.10138    0.13620    0.21940    1.000
    N36      N        0.17819    0.27250    0.11060    1.000
    N37      N        0.99308    0.72490    0.98200    1.000
    N38      N        0.32929    0.00630    0.08370    1.000
    C74      C        0.80474    0.24330    0.90270    1.000
    C75      C        0.83681    0.16140    0.92970    1.000
    H41      H        0.83900    0.09600    0.98520    1.000
    H42      H        0.85460    0.23630    0.94560    1.000
    H43      H        0.83790    0.09830    0.87600    1.000
    C76      C        0.76364    0.39620    0.82400    1.000
    C77      C        0.74327    0.50610    0.74960    1.000
    H44      H        0.75530    0.53500    0.70620    1.000
    H45      H        0.72270    0.45680    0.71320    1.000
    H46      H        0.73870    0.59780    0.78110    1.000
    C78      C        0.83969    0.88910    0.16450    1.000
    C79      C        0.92769    0.53350    0.33100    1.000
    C80      C        0.01124    0.19370    0.53670    1.000
    C81      C        0.10138    0.86380    0.71940    1.000
    C82      C        0.17819    0.72750    0.61060    1.000
    C83      C        0.15965    0.59710    0.86650    1.000
    N39      N        0.79410    0.34450    0.82700    1.000
    N40      N        0.78174    0.23310    0.94500    1.000
    N41      N        0.81232    0.38440    0.76520    1.000
    H47      H        0.80420    0.44940    0.71830    1.000
    H48      H        0.83170    0.34400    0.77410    1.000
    N42      N        0.75540    0.33140    0.89480    1.000
    C84      C        0.82002    0.98290    0.13080    1.000
    C85      C        0.90565    0.61240    0.29150    1.000
    C86      C        0.99308    0.27510    0.48200    1.000
    C87      C        0.07756    0.93620    0.68490    1.000
    C88      C        0.16754    0.75300    0.67240    1.000
    C89      C        0.17071    0.49370    0.91630    1.000
    C90      C        0.23718    0.72820    0.49990    1.000
    Cu31     Cu       0.78542    0.12283    0.06901    1.000
    Cu32     Cu       0.86956    0.73638    0.22810    1.000
    Cu33     Cu       0.96194    0.40346    0.39827    1.000
    Cu34     Cu       0.04150    0.06148    0.62083    1.000
    Cu35     Cu       0.14331    0.75516    0.76915    1.000
    Cu36     Cu       0.19479    0.66764    0.50854    1.000
    N43      N        0.66031    0.61090    0.83550    1.000
    N44      N        0.57231    0.96650    0.66900    1.000
    N45      N        0.39862    0.63620    0.28060    1.000
    N46      N        0.32181    0.77250    0.38940    1.000
    N47      N        0.50692    0.22490    0.51800    1.000
    N48      N        0.17071    0.50630    0.41630    1.000
    C91      C        0.80474    0.75670    0.40270    1.000
    C92      C        0.83681    0.83860    0.42970    1.000
    H49      H        0.83900    0.90400    0.48520    1.000
    H50      H        0.85460    0.76370    0.44560    1.000
    H51      H        0.83790    0.90170    0.37600    1.000
    C93      C        0.76364    0.60380    0.32400    1.000
    C94      C        0.74327    0.49390    0.24960    1.000
    H52      H        0.75530    0.46500    0.20620    1.000
    H53      H        0.72270    0.54320    0.21320    1.000
    H54      H        0.73870    0.40220    0.28110    1.000
    C95      C        0.01124    0.80630    0.03670    1.000
    C96      C        0.15965    0.40290    0.36650    1.000
    N49      N        0.79410    0.65550    0.32700    1.000
    N50      N        0.78174    0.76690    0.44500    1.000
    N51      N        0.81232    0.61560    0.26520    1.000
    H55      H        0.80420    0.55060    0.21830    1.000
    H56      H        0.83170    0.65600    0.27410    1.000
    N52      N        0.75540    0.66860    0.39480    1.000
    C97      C        0.82002    0.01710    0.63080    1.000
    C98      C        0.90565    0.38760    0.79150    1.000
    C99      C        0.07756    0.06380    0.18490    1.000
    C100     C        0.16754    0.24700    0.17240    1.000
    C101     C        0.23718    0.27180    0.99990    1.000
    Cu37     Cu       0.78542    0.87717    0.56901    1.000
    Cu38     Cu       0.86956    0.26362    0.72810    1.000
    Cu39     Cu       0.96194    0.59654    0.89827    1.000
    Cu40     Cu       0.04150    0.93852    0.12083    1.000
    Cu41     Cu       0.14331    0.24484    0.26915    1.000
    Cu42     Cu       0.19479    0.33236    0.00854    1.000
    C102     C        0.69526    0.25670    0.09730    1.000
    C103     C        0.66319    0.33860    0.07030    1.000
    H57      H        0.66100    0.40400    0.01480    1.000
    H58      H        0.64540    0.26370    0.05440    1.000
    H59      H        0.66210    0.40170    0.12400    1.000
    C104     C        0.73636    0.10380    0.17600    1.000
    C105     C        0.75673    0.99390    0.25040    1.000
    H60      H        0.74470    0.96500    0.29380    1.000
    H61      H        0.77730    0.04320    0.28680    1.000
    H62      H        0.76130    0.90220    0.21890    1.000
    C106     C        0.48876    0.30630    0.46330    1.000
    C107     C        0.34035    0.90290    0.13350    1.000
    N53      N        0.70590    0.15550    0.17300    1.000
    N54      N        0.71826    0.26690    0.05500    1.000
    N55      N        0.68768    0.11560    0.23480    1.000
    H63      H        0.69580    0.05060    0.28170    1.000
    H64      H        0.66830    0.15600    0.22590    1.000
    N56      N        0.74460    0.16860    0.10520    1.000
    C108     C        0.67998    0.51710    0.86920    1.000
    C109     C        0.59435    0.88760    0.70850    1.000
    C110     C        0.42244    0.56380    0.31510    1.000
    C111     C        0.33246    0.74700    0.32760    1.000
    C112     C        0.26282    0.77180    0.50010    1.000
    Cu43     Cu       0.71458    0.37717    0.93099    1.000
    Cu44     Cu       0.63044    0.76362    0.77190    1.000
    Cu45     Cu       0.53807    0.09654    0.60173    1.000
    Cu46     Cu       0.45850    0.43852    0.37917    1.000
    Cu47     Cu       0.35669    0.74484    0.23085    1.000
    Cu48     Cu       0.30521    0.83236    0.49146    1.000
