# CIF file generated by openbabel 3.1.0, see https://openbabel.org
data_I
_chemical_name_common 'YARYOF_clean'
_cell_length_a 8.1768
_cell_length_b 8.1768
_cell_length_c 15.837
_cell_angle_alpha 91.3882
_cell_angle_beta 91.3882
_cell_angle_gamma 95.2028
_space_group_name_H-M_alt 'P 1'
_space_group_name_Hall 'P 1'
loop_
    _symmetry_equiv_pos_as_xyz
    x,y,z
loop_
    _atom_site_label
    _atom_site_type_symbol
    _atom_site_fract_x
    _atom_site_fract_y
    _atom_site_fract_z
    _atom_site_occupancy
    Cd1      Cd       0.49269    0.51411    0.74956    1.000
    Cd2      Cd       0.00367    0.49633    0.00000    1.000
    Cd3      Cd       0.51411    0.49269    0.24956    1.000
    Cd4      Cd       0.49633    0.00367    0.50000    1.000
    H1       H        0.81951    0.19611    0.95958    1.000
    H2       H        0.00077    0.20807    0.89921    1.000
    H3       H        0.14782    0.12218    0.01840    1.000
    H4       H        0.96086    0.10046    0.07399    1.000
    H5       H        0.04244    0.89928    0.92028    1.000
    H6       H        0.85541    0.87759    0.97581    1.000
    H7       H        0.00013    0.79093    0.09216    1.000
    H8       H        0.17993    0.80107    0.03070    1.000
    H9       H        0.19611    0.81951    0.45958    1.000
    H10      H        0.20807    0.00077    0.39921    1.000
    H11      H        0.12218    0.14782    0.51840    1.000
    H12      H        0.10046    0.96086    0.57399    1.000
    H13      H        0.89928    0.04244    0.42028    1.000
    H14      H        0.87759    0.85541    0.47581    1.000
    H15      H        0.79093    0.00013    0.59216    1.000
    H16      H        0.80107    0.17993    0.53070    1.000
    C1       C        0.28670    0.50330    0.83820    1.000
    C2       C        0.72940    0.47980    0.16420    1.000
    C3       C        0.48110    0.30750    0.65310    1.000
    C4       C        0.69880    0.53060    0.84300    1.000
    C5       C        0.01620    0.08720    0.01250    1.000
    C6       C        0.98710    0.91250    0.98170    1.000
    C7       C        0.50330    0.28670    0.33820    1.000
    C8       C        0.47980    0.72940    0.66420    1.000
    C9       C        0.30750    0.48110    0.15310    1.000
    C10      C        0.53060    0.69880    0.34300    1.000
    C11      C        0.08720    0.01620    0.51250    1.000
    C12      C        0.91250    0.98710    0.48170    1.000
    N1       N        0.18440    0.50700    0.89070    1.000
    N2       N        0.81200    0.47860    0.11110    1.000
    N3       N        0.47160    0.21100    0.60120    1.000
    N4       N        0.79620    0.53440    0.89640    1.000
    N5       N        0.95330    0.21390    0.96280    1.000
    N6       N        0.04610    0.78630    0.02820    1.000
    N7       N        0.50700    0.18440    0.39070    1.000
    N8       N        0.47860    0.81200    0.61110    1.000
    N9       N        0.21100    0.47160    0.10120    1.000
    N10      N        0.53440    0.79620    0.39640    1.000
    N11      N        0.21390    0.95330    0.46280    1.000
    N12      N        0.78630    0.04610    0.52820    1.000
