# CIF file generated by openbabel 3.1.0, see https://openbabel.org
data_I
_chemical_name_common 'image0'
_cell_length_a 11.154
_cell_length_b 7.792
_cell_length_c 12.375
_cell_angle_alpha 90
_cell_angle_beta 90
_cell_angle_gamma 90
_space_group_name_H-M_alt 'P 1'
_space_group_name_Hall 'P 1'
loop_
    _symmetry_equiv_pos_as_xyz
    x,y,z
loop_
    _atom_site_label
    _atom_site_type_symbol
    _atom_site_fract_x
    _atom_site_fract_y
    _atom_site_fract_z
    _atom_site_occupancy
    Ag1      Ag       0.20124    0.85045    0.50000    1.000
    C1       C        0.27380    0.57010    0.53430    1.000
    C2       C        0.28550    0.58910    0.42650    1.000
    C3       C        0.40280    0.63260    0.37560    1.000
    C4       C        0.52120    0.35460    0.39820    1.000
    C5       C        0.65260    0.38020    0.40550    1.000
    C6       C        0.72050    0.47870    0.33920    1.000
    C7       C        0.43580    0.44020    0.22810    1.000
    N1       N        0.45940    0.47890    0.32810    1.000
    N2       N        0.41660    0.40800    0.13840    1.000
    H1       H        0.20200    0.53600    0.56000    1.000
    H2       H        0.32600    0.59400    0.58900    1.000
    H3       H        0.21600    0.56100    0.39000    1.000
    H4       H        0.38200    0.71200    0.32200    1.000
    H5       H        0.48200    0.64700    0.40600    1.000
    H6       H        0.48500    0.35600    0.47200    1.000
    H7       H        0.49300    0.22300    0.36800    1.000
    H8       H        0.68500    0.30900    0.45900    1.000
    H9       H        0.80700    0.47900    0.33900    1.000
    H10      H        0.68100    0.53600    0.28100    1.000
    Ag2      Ag       0.79876    0.14955    0.00000    1.000
    C8       C        0.72620    0.42990    0.03430    1.000
    C9       C        0.71450    0.41090    0.92650    1.000
    C10      C        0.59720    0.36740    0.87560    1.000
    C11      C        0.47880    0.64540    0.89820    1.000
    C12      C        0.34740    0.61980    0.90550    1.000
    C13      C        0.27950    0.52130    0.83920    1.000
    C14      C        0.56420    0.55980    0.72810    1.000
    N3       N        0.54060    0.52110    0.82810    1.000
    N4       N        0.58340    0.59200    0.63840    1.000
    H11      H        0.79800    0.46400    0.06000    1.000
    H12      H        0.67400    0.40600    0.08900    1.000
    H13      H        0.78400    0.43900    0.89000    1.000
    H14      H        0.61800    0.28800    0.82200    1.000
    H15      H        0.51800    0.35300    0.90600    1.000
    H16      H        0.51500    0.64400    0.97200    1.000
    H17      H        0.50700    0.77700    0.86800    1.000
    H18      H        0.31500    0.69100    0.95900    1.000
    H19      H        0.19300    0.52100    0.83900    1.000
    H20      H        0.31900    0.46400    0.78100    1.000
    Ag3      Ag       0.70124    0.64955    0.50000    1.000
    C15      C        0.77380    0.92990    0.53430    1.000
    C16      C        0.78550    0.91090    0.42650    1.000
    C17      C        0.90280    0.86740    0.37560    1.000
    C18      C        0.02120    0.14540    0.39820    1.000
    C19      C        0.15260    0.11980    0.40550    1.000
    C20      C        0.22050    0.02130    0.33920    1.000
    C21      C        0.93580    0.05980    0.22810    1.000
    N5       N        0.95940    0.02110    0.32810    1.000
    N6       N        0.91660    0.09200    0.13840    1.000
    H21      H        0.70200    0.96400    0.56000    1.000
    H22      H        0.82600    0.90600    0.58900    1.000
    H23      H        0.71600    0.93900    0.39000    1.000
    H24      H        0.88200    0.78800    0.32200    1.000
    H25      H        0.98200    0.85300    0.40600    1.000
    H26      H        0.98500    0.14400    0.47200    1.000
    H27      H        0.99300    0.27700    0.36800    1.000
    H28      H        0.18500    0.19100    0.45900    1.000
    H29      H        0.30700    0.02100    0.33900    1.000
    H30      H        0.18100    0.96400    0.28100    1.000
    Ag4      Ag       0.29876    0.35045    0.00000    1.000
    C22      C        0.22620    0.07010    0.03430    1.000
    C23      C        0.21450    0.08910    0.92650    1.000
    C24      C        0.09720    0.13260    0.87560    1.000
    C25      C        0.97880    0.85460    0.89820    1.000
    C26      C        0.84740    0.88020    0.90550    1.000
    C27      C        0.77950    0.97870    0.83920    1.000
    C28      C        0.06420    0.94020    0.72810    1.000
    N7       N        0.04060    0.97890    0.82810    1.000
    N8       N        0.08340    0.90800    0.63840    1.000
    H31      H        0.29800    0.03600    0.06000    1.000
    H32      H        0.17400    0.09400    0.08900    1.000
    H33      H        0.28400    0.06100    0.89000    1.000
    H34      H        0.11800    0.21200    0.82200    1.000
    H35      H        0.01800    0.14700    0.90600    1.000
    H36      H        0.01500    0.85600    0.97200    1.000
    H37      H        0.00700    0.72300    0.86800    1.000
    H38      H        0.81500    0.80900    0.95900    1.000
    H39      H        0.69300    0.97900    0.83900    1.000
    H40      H        0.81900    0.03600    0.78100    1.000
