# CIF file generated by openbabel 3.1.0, see https://openbabel.org
data_I
_chemical_name_common 'image0'
_cell_length_a 14.251
_cell_length_b 17.797
_cell_length_c 13.043
_cell_angle_alpha 90
_cell_angle_beta 111.247
_cell_angle_gamma 90
_space_group_name_H-M_alt 'P 1'
_space_group_name_Hall 'P 1'
loop_
    _symmetry_equiv_pos_as_xyz
    x,y,z
loop_
    _atom_site_label
    _atom_site_type_symbol
    _atom_site_fract_x
    _atom_site_fract_y
    _atom_site_fract_z
    _atom_site_occupancy
    Cd1      Cd       0.07893    0.13959    0.08502    1.000
    C1       C        0.25000    0.13420    0.16110    1.000
    C2       C        0.33070    0.13460    0.19420    1.000
    C3       C        0.01660    0.02790    0.01860    1.000
    C4       C        0.49020    0.23410    0.11850    1.000
    C5       C        0.01600    0.15630    0.21550    1.000
    C6       C        0.02740    0.22470    0.94890    1.000
    Cd2      Cd       0.57893    0.63959    0.08502    1.000
    C7       C        0.75000    0.63420    0.16110    1.000
    C8       C        0.83070    0.63460    0.19420    1.000
    C9       C        0.51660    0.52790    0.01860    1.000
    C10      C        0.99020    0.73410    0.11850    1.000
    C11      C        0.51600    0.65630    0.21550    1.000
    C12      C        0.52740    0.72470    0.94890    1.000
    Cd3      Cd       0.92107    0.13959    0.41498    1.000
    C13      C        0.75000    0.13420    0.33890    1.000
    C14      C        0.66930    0.13460    0.30580    1.000
    C15      C        0.98340    0.02790    0.48140    1.000
    C16      C        0.50980    0.23410    0.38150    1.000
    C17      C        0.98400    0.15630    0.28450    1.000
    C18      C        0.97260    0.22470    0.55110    1.000
    Cd4      Cd       0.42107    0.63959    0.41498    1.000
    C19      C        0.25000    0.63420    0.33890    1.000
    C20      C        0.16930    0.63460    0.30580    1.000
    C21      C        0.48340    0.52790    0.48140    1.000
    C22      C        0.00980    0.73410    0.38150    1.000
    C23      C        0.48400    0.65630    0.28450    1.000
    C24      C        0.47260    0.72470    0.55110    1.000
    Cd5      Cd       0.92107    0.86041    0.91498    1.000
    C25      C        0.75000    0.86580    0.83890    1.000
    C26      C        0.66930    0.86540    0.80580    1.000
    C27      C        0.98340    0.97210    0.98140    1.000
    C28      C        0.50980    0.76590    0.88150    1.000
    C29      C        0.98400    0.84370    0.78450    1.000
    C30      C        0.97260    0.77530    0.05110    1.000
    Cd6      Cd       0.42107    0.36041    0.91498    1.000
    C31      C        0.25000    0.36580    0.83890    1.000
    C32      C        0.16930    0.36540    0.80580    1.000
    C33      C        0.48340    0.47210    0.98140    1.000
    C34      C        0.00980    0.26590    0.88150    1.000
    C35      C        0.48400    0.34370    0.78450    1.000
    C36      C        0.47260    0.27530    0.05110    1.000
    Cd7      Cd       0.07893    0.86041    0.58502    1.000
    C37      C        0.25000    0.86580    0.66110    1.000
    C38      C        0.33070    0.86540    0.69420    1.000
    C39      C        0.01660    0.97210    0.51860    1.000
    C40      C        0.49020    0.76590    0.61850    1.000
    C41      C        0.01600    0.84370    0.71550    1.000
    C42      C        0.02740    0.77530    0.44890    1.000
    Cd8      Cd       0.57893    0.36041    0.58502    1.000
    C43      C        0.75000    0.36580    0.66110    1.000
    C44      C        0.83070    0.36540    0.69420    1.000
    C45      C        0.51660    0.47210    0.51860    1.000
    C46      C        0.99020    0.26590    0.61850    1.000
    C47      C        0.51600    0.34370    0.71550    1.000
    C48      C        0.52740    0.27530    0.44890    1.000
    Cd9      Cd       0.50000    0.14766    0.25000    1.000
    Cd10     Cd       0.00000    0.64766    0.25000    1.000
    Cd11     Cd       0.50000    0.85234    0.75000    1.000
    Cd12     Cd       0.00000    0.35234    0.75000    1.000
