# CIF file generated by openbabel 3.1.0, see https://openbabel.org
data_I
_chemical_name_common 'image0'
_cell_length_a 10.5
_cell_length_b 10.635
_cell_length_c 11.373
_cell_angle_alpha 82.98
_cell_angle_beta 74.42
_cell_angle_gamma 69.6
_space_group_name_H-M_alt 'P 1'
_space_group_name_Hall 'P 1'
loop_
    _symmetry_equiv_pos_as_xyz
    x,y,z
loop_
    _atom_site_label
    _atom_site_type_symbol
    _atom_site_fract_x
    _atom_site_fract_y
    _atom_site_fract_z
    _atom_site_occupancy
    Eu1      Eu       0.58804    0.59837    0.62980    1.000
    O1       O        0.39700    0.62000    0.40580    1.000
    O2       O        0.47270    0.74570    0.49240    1.000
    O3       O        0.27480    0.25160    0.44570    1.000
    O4       O        0.04600    0.31930    0.45460    1.000
    O5       O        0.87780    0.06050    0.25770    1.000
    O6       O        0.95260    0.84840    0.27420    1.000
    O7       O        0.00480    0.44070    0.66870    1.000
    O8       O        0.77460    0.49320    0.71910    1.000
    O9       O        0.53270    0.47630    0.16310    1.000
    O10      O        0.65900    0.38850    0.29650    1.000
    O11      O        0.17440    0.25080    0.15630    1.000
    O12      O        0.27120    0.23290    0.96590    1.000
    N1       N        0.96170    0.95640    0.28310    1.000
    N2       N        0.16900    0.26200    0.05070    1.000
    C1       C        0.28190    0.85440    0.40420    1.000
    C2       C        0.27910    0.98070    0.43140    1.000
    H1       H        0.34920    0.98700    0.46350    1.000
    C3       C        0.17320    0.09560    0.41110    1.000
    C4       C        0.06650    0.08780    0.36380    1.000
    H2       H        0.99270    0.16410    0.35260    1.000
    C5       C        0.07480    0.96180    0.33410    1.000
    C6       C        0.17780    0.84600    0.35440    1.000
    H3       H        0.17810    0.76330    0.33520    1.000
    C7       C        0.39180    0.73090    0.43590    1.000
    C8       C        0.16680    0.23280    0.43900    1.000
    C9       C        0.89630    0.41590    0.87530    1.000
    C10      C        0.77500    0.44020    0.96750    1.000
    H4       H        0.68850    0.47970    0.94860    1.000
    C11      C        0.78120    0.40590    0.08880    1.000
    C12      C        0.91010    0.34790    0.11690    1.000
    H5       H        0.91600    0.32560    0.19730    1.000
    C13      C        0.03010    0.32380    0.02250    1.000
    C14      C        0.02600    0.35570    0.90290    1.000
    H6       H        0.10820    0.33750    0.84140    1.000
    C15      C        0.89020    0.45380    0.74510    1.000
    C16      C        0.64930    0.42660    0.18800    1.000
    Eu2      Eu       0.41196    0.40163    0.37020    1.000
    O13      O        0.60300    0.38000    0.59420    1.000
    O14      O        0.52730    0.25430    0.50760    1.000
    O15      O        0.72520    0.74840    0.55430    1.000
    O16      O        0.95400    0.68070    0.54540    1.000
    O17      O        0.12220    0.93950    0.74230    1.000
    O18      O        0.04740    0.15160    0.72580    1.000
    O19      O        0.99520    0.55930    0.33130    1.000
    O20      O        0.22540    0.50680    0.28090    1.000
    O21      O        0.46730    0.52370    0.83690    1.000
    O22      O        0.34100    0.61150    0.70350    1.000
    O23      O        0.82560    0.74920    0.84370    1.000
    O24      O        0.72880    0.76710    0.03410    1.000
    N3       N        0.03830    0.04360    0.71690    1.000
    N4       N        0.83100    0.73800    0.94930    1.000
    C17      C        0.71810    0.14560    0.59580    1.000
    C18      C        0.72090    0.01930    0.56860    1.000
    H7       H        0.65080    0.01300    0.53650    1.000
    C19      C        0.82680    0.90440    0.58890    1.000
    C20      C        0.93350    0.91220    0.63620    1.000
    H8       H        0.00730    0.83590    0.64740    1.000
    C21      C        0.92520    0.03820    0.66590    1.000
    C22      C        0.82220    0.15400    0.64560    1.000
    H9       H        0.82190    0.23670    0.66480    1.000
    C23      C        0.60820    0.26910    0.56410    1.000
    C24      C        0.83320    0.76720    0.56100    1.000
    C25      C        0.10370    0.58410    0.12470    1.000
    C26      C        0.22500    0.55980    0.03250    1.000
    H10      H        0.31150    0.52030    0.05140    1.000
    C27      C        0.21880    0.59410    0.91120    1.000
    C28      C        0.08990    0.65210    0.88310    1.000
    H11      H        0.08400    0.67440    0.80270    1.000
    C29      C        0.96990    0.67620    0.97750    1.000
    C30      C        0.97400    0.64430    0.09710    1.000
    H12      H        0.89180    0.66250    0.15860    1.000
    C31      C        0.10980    0.54620    0.25490    1.000
    C32      C        0.35070    0.57340    0.81200    1.000
    Cu1      Cu       0.00000    0.50000    0.50000    1.000
