# CIF file generated by openbabel 3.1.0, see https://openbabel.org
data_I
_chemical_name_common 'image0'
_cell_length_a 7.859
_cell_length_b 13.253
_cell_length_c 17.452
_cell_angle_alpha 90
_cell_angle_beta 105.258
_cell_angle_gamma 90
_space_group_name_H-M_alt 'P 1'
_space_group_name_Hall 'P 1'
loop_
    _symmetry_equiv_pos_as_xyz
    x,y,z
loop_
    _atom_site_label
    _atom_site_type_symbol
    _atom_site_fract_x
    _atom_site_fract_y
    _atom_site_fract_z
    _atom_site_occupancy
    Cu1      Cu       0.72744    0.60358    0.55339    1.000
    O1       O        0.83000    0.50350    0.49760    1.000
    H1       H        0.74620    0.44940    0.47570    1.000
    N1       N        0.69090    0.69240    0.45550    1.000
    C1       C        0.77530    0.42620    0.65970    1.000
    Cu2      Cu       0.95180    0.55050    0.42103    1.000
    O2       O        0.91610    0.39380    0.64770    1.000
    N2       N        0.80890    0.68040    0.40970    1.000
    C2       C        0.70840    0.36760    0.71920    1.000
    O3       O        0.69000    0.50130    0.62860    1.000
    N3       N        0.65760    0.81670    0.37320    1.000
    C3       C        0.54770    0.39240    0.73400    1.000
    H2       H        0.48120    0.44570    0.70700    1.000
    O4       O        0.00610    0.17700    0.90710    1.000
    N4       N        0.59800    0.90600    0.33360    1.000
    H3       H        0.51950    0.94180    0.34700    1.000
    H4       H        0.64150    0.92580    0.29570    1.000
    C4       C        0.48730    0.33770    0.78880    1.000
    H5       H        0.37900    0.35370    0.79780    1.000
    O5       O        0.82160    0.06070    0.83930    1.000
    C5       C        0.58700    0.25820    0.83120    1.000
    O6       O        0.62710    0.16050    0.94880    1.000
    C6       C        0.52140    0.20230    0.89240    1.000
    O7       O        0.35510    0.20390    0.88380    1.000
    C7       C        0.74750    0.23490    0.81650    1.000
    C8       C        0.86750    0.15110    0.85890    1.000
    C9       C        0.80720    0.28860    0.76040    1.000
    H6       H        0.91410    0.27160    0.75040    1.000
    C10      C        0.78760    0.75780    0.36190    1.000
    H7       H        0.85280    0.77020    0.32550    1.000
    C11      C        0.60220    0.77570    0.43310    1.000
    H8       H        0.51580    0.80220    0.45490    1.000
    Cu3      Cu       0.27256    0.10358    0.94661    1.000
    O8       O        0.17000    0.00350    0.00240    1.000
    H9       H        0.25380    0.94940    0.02430    1.000
    N5       N        0.30910    0.19240    0.04450    1.000
    C12      C        0.22470    0.92620    0.84030    1.000
    Cu4      Cu       0.04820    0.05050    0.07897    1.000
    O9       O        0.08390    0.89380    0.85230    1.000
    N6       N        0.19110    0.18040    0.09030    1.000
    C13      C        0.29160    0.86760    0.78080    1.000
    O10      O        0.31000    0.00130    0.87140    1.000
    N7       N        0.34240    0.31670    0.12680    1.000
    C14      C        0.45230    0.89240    0.76600    1.000
    H10      H        0.51880    0.94570    0.79300    1.000
    O11      O        0.99390    0.67700    0.59290    1.000
    N8       N        0.40200    0.40600    0.16640    1.000
    H11      H        0.48050    0.44180    0.15300    1.000
    H12      H        0.35850    0.42580    0.20430    1.000
    C15      C        0.51270    0.83770    0.71120    1.000
    H13      H        0.62100    0.85370    0.70220    1.000
    O12      O        0.17840    0.56070    0.66070    1.000
    C16      C        0.41300    0.75820    0.66880    1.000
    O13      O        0.37290    0.66050    0.55120    1.000
    C17      C        0.47860    0.70230    0.60760    1.000
    O14      O        0.64490    0.70390    0.61620    1.000
    C18      C        0.25250    0.73490    0.68350    1.000
    C19      C        0.13250    0.65110    0.64110    1.000
    C20      C        0.19280    0.78860    0.73960    1.000
    H14      H        0.08590    0.77160    0.74960    1.000
    C21      C        0.21240    0.25780    0.13810    1.000
    H15      H        0.14720    0.27020    0.17450    1.000
    C22      C        0.39780    0.27570    0.06690    1.000
    H16      H        0.48420    0.30220    0.04510    1.000
    Cu5      Cu       0.27256    0.39642    0.44661    1.000
    O15      O        0.17000    0.49650    0.50240    1.000
    H17      H        0.25380    0.55060    0.52430    1.000
    N9       N        0.30910    0.30760    0.54450    1.000
    C23      C        0.22470    0.57380    0.34030    1.000
    Cu6      Cu       0.04820    0.44950    0.57897    1.000
    O16      O        0.08390    0.60620    0.35230    1.000
    N10      N        0.19110    0.31960    0.59030    1.000
    C24      C        0.29160    0.63240    0.28080    1.000
    O17      O        0.31000    0.49870    0.37140    1.000
    N11      N        0.34240    0.18330    0.62680    1.000
    C25      C        0.45230    0.60760    0.26600    1.000
    H18      H        0.51880    0.55430    0.29300    1.000
    O18      O        0.99390    0.82300    0.09290    1.000
    N12      N        0.40200    0.09400    0.66640    1.000
    H19      H        0.48050    0.05820    0.65300    1.000
    H20      H        0.35850    0.07420    0.70430    1.000
    C26      C        0.51270    0.66230    0.21120    1.000
    H21      H        0.62100    0.64630    0.20220    1.000
    O19      O        0.17840    0.93930    0.16070    1.000
    C27      C        0.41300    0.74180    0.16880    1.000
    O20      O        0.37290    0.83950    0.05120    1.000
    C28      C        0.47860    0.79770    0.10760    1.000
    O21      O        0.64490    0.79610    0.11620    1.000
    C29      C        0.25250    0.76510    0.18350    1.000
    C30      C        0.13250    0.84890    0.14110    1.000
    C31      C        0.19280    0.71140    0.23960    1.000
    H22      H        0.08590    0.72840    0.24960    1.000
    C32      C        0.21240    0.24220    0.63810    1.000
    H23      H        0.14720    0.22980    0.67450    1.000
    C33      C        0.39780    0.22430    0.56690    1.000
    H24      H        0.48420    0.19780    0.54510    1.000
    Cu7      Cu       0.72744    0.89642    0.05339    1.000
    O22      O        0.83000    0.99650    0.99760    1.000
    H25      H        0.74620    0.05060    0.97570    1.000
    N13      N        0.69090    0.80760    0.95550    1.000
    C34      C        0.77530    0.07380    0.15970    1.000
    Cu8      Cu       0.95180    0.94950    0.92103    1.000
    O23      O        0.91610    0.10620    0.14770    1.000
    N14      N        0.80890    0.81960    0.90970    1.000
    C35      C        0.70840    0.13240    0.21920    1.000
    O24      O        0.69000    0.99870    0.12860    1.000
    N15      N        0.65760    0.68330    0.87320    1.000
    C36      C        0.54770    0.10760    0.23400    1.000
    H26      H        0.48120    0.05430    0.20700    1.000
    O25      O        0.00610    0.32300    0.40710    1.000
    N16      N        0.59800    0.59400    0.83360    1.000
    H27      H        0.51950    0.55820    0.84700    1.000
    H28      H        0.64150    0.57420    0.79570    1.000
    C37      C        0.48730    0.16230    0.28880    1.000
    H29      H        0.37900    0.14630    0.29780    1.000
    O26      O        0.82160    0.43930    0.33930    1.000
    C38      C        0.58700    0.24180    0.33120    1.000
    O27      O        0.62710    0.33950    0.44880    1.000
    C39      C        0.52140    0.29770    0.39240    1.000
    O28      O        0.35510    0.29610    0.38380    1.000
    C40      C        0.74750    0.26510    0.31650    1.000
    C41      C        0.86750    0.34890    0.35890    1.000
    C42      C        0.80720    0.21140    0.26040    1.000
    H30      H        0.91410    0.22840    0.25040    1.000
    C43      C        0.78760    0.74220    0.86190    1.000
    H31      H        0.85280    0.72980    0.82550    1.000
    C44      C        0.60220    0.72430    0.93310    1.000
    H32      H        0.51580    0.69780    0.95490    1.000
