# CIF file generated by openbabel 3.1.0, see https://openbabel.org
data_I
_chemical_name_common 'image0'
_cell_length_a 15.1423
_cell_length_b 15.1423
_cell_length_c 12.0449
_cell_angle_alpha 90
_cell_angle_beta 90
_cell_angle_gamma 90
_space_group_name_H-M_alt 'P 1'
_space_group_name_Hall 'P 1'
loop_
    _symmetry_equiv_pos_as_xyz
    x,y,z
loop_
    _atom_site_label
    _atom_site_type_symbol
    _atom_site_fract_x
    _atom_site_fract_y
    _atom_site_fract_z
    _atom_site_occupancy
    O1       O        0.60220    0.29060    0.76150    1.000
    O2       O        0.62250    0.38070    0.61420    1.000
    C1       C        0.59250    0.36010    0.70690    1.000
    C2       C        0.54100    0.43200    0.76240    1.000
    C3       C        0.54580    0.43270    0.88160    1.000
    H1       H        0.57318    0.38162    0.90735    1.000
    O3       O        0.10220    0.79060    0.26150    1.000
    O4       O        0.12250    0.88070    0.11420    1.000
    C4       C        0.09250    0.86010    0.20690    1.000
    C5       C        0.04100    0.93200    0.26240    1.000
    C6       C        0.04580    0.93270    0.38160    1.000
    H2       H        0.07318    0.88162    0.40735    1.000
    O5       O        0.89780    0.20940    0.26150    1.000
    O6       O        0.87750    0.11930    0.11420    1.000
    C7       C        0.90750    0.13990    0.20690    1.000
    C8       C        0.95900    0.06800    0.26240    1.000
    C9       C        0.95420    0.06730    0.38160    1.000
    H3       H        0.92682    0.11838    0.40735    1.000
    O7       O        0.39780    0.70940    0.76150    1.000
    O8       O        0.37750    0.61930    0.61420    1.000
    C10      C        0.40750    0.63990    0.70690    1.000
    C11      C        0.45900    0.56800    0.76240    1.000
    C12      C        0.45420    0.56730    0.88160    1.000
    H4       H        0.42682    0.61838    0.90735    1.000
    O9       O        0.70940    0.10220    0.01150    1.000
    O10      O        0.61930    0.12250    0.86420    1.000
    C13      C        0.63990    0.09250    0.95690    1.000
    C14      C        0.56800    0.04100    0.01240    1.000
    C15      C        0.56730    0.04580    0.13160    1.000
    H5       H        0.61838    0.07318    0.15735    1.000
    O11      O        0.20940    0.60220    0.51150    1.000
    O12      O        0.11930    0.62250    0.36420    1.000
    C16      C        0.13990    0.59250    0.45690    1.000
    C17      C        0.06800    0.54100    0.51240    1.000
    C18      C        0.06730    0.54580    0.63160    1.000
    H6       H        0.11838    0.57318    0.65735    1.000
    O13      O        0.79060    0.39780    0.51150    1.000
    O14      O        0.88070    0.37750    0.36420    1.000
    C19      C        0.86010    0.40750    0.45690    1.000
    C20      C        0.93200    0.45900    0.51240    1.000
    C21      C        0.93270    0.45420    0.63160    1.000
    H7       H        0.88162    0.42682    0.65735    1.000
    O15      O        0.29060    0.89780    0.01150    1.000
    O16      O        0.38070    0.87750    0.86420    1.000
    C22      C        0.36010    0.90750    0.95690    1.000
    C23      C        0.43200    0.95900    0.01240    1.000
    C24      C        0.43270    0.95420    0.13160    1.000
    H8       H        0.38162    0.92682    0.15735    1.000
    O17      O        0.89780    0.29060    0.98850    1.000
    O18      O        0.87750    0.38070    0.13580    1.000
    C25      C        0.90750    0.36010    0.04310    1.000
    C26      C        0.95900    0.43200    0.98760    1.000
    C27      C        0.95420    0.43270    0.86840    1.000
    H9       H        0.92682    0.38162    0.84265    1.000
    O19      O        0.39780    0.79060    0.48850    1.000
    O20      O        0.37750    0.88070    0.63580    1.000
    C28      C        0.40750    0.86010    0.54310    1.000
    C29      C        0.45900    0.93200    0.48760    1.000
    C30      C        0.45420    0.93270    0.36840    1.000
    H10      H        0.42682    0.88162    0.34265    1.000
    O21      O        0.60220    0.20940    0.48850    1.000
    O22      O        0.62250    0.11930    0.63580    1.000
    C31      C        0.59250    0.13990    0.54310    1.000
    C32      C        0.54100    0.06800    0.48760    1.000
    C33      C        0.54580    0.06730    0.36840    1.000
    H11      H        0.57318    0.11838    0.34265    1.000
    O23      O        0.10220    0.70940    0.98850    1.000
    O24      O        0.12250    0.61930    0.13580    1.000
    C34      C        0.09250    0.63990    0.04310    1.000
    C35      C        0.04100    0.56800    0.98760    1.000
    C36      C        0.04580    0.56730    0.86840    1.000
    H12      H        0.07318    0.61838    0.84265    1.000
    O25      O        0.79060    0.10220    0.73850    1.000
    O26      O        0.88070    0.12250    0.88580    1.000
    C37      C        0.86010    0.09250    0.79310    1.000
    C38      C        0.93200    0.04100    0.73760    1.000
    C39      C        0.93270    0.04580    0.61840    1.000
    H13      H        0.88162    0.07318    0.59265    1.000
    O27      O        0.29060    0.60220    0.23850    1.000
    O28      O        0.38070    0.62250    0.38580    1.000
    C40      C        0.36010    0.59250    0.29310    1.000
    C41      C        0.43200    0.54100    0.23760    1.000
    C42      C        0.43270    0.54580    0.11840    1.000
    H14      H        0.38162    0.57318    0.09265    1.000
    O29      O        0.70940    0.39780    0.23850    1.000
    O30      O        0.61930    0.37750    0.38580    1.000
    C43      C        0.63990    0.40750    0.29310    1.000
    C44      C        0.56800    0.45900    0.23760    1.000
    C45      C        0.56730    0.45420    0.11840    1.000
    H15      H        0.61838    0.42682    0.09265    1.000
    O31      O        0.20940    0.89780    0.73850    1.000
    O32      O        0.11930    0.87750    0.88580    1.000
    C46      C        0.13990    0.90750    0.79310    1.000
    C47      C        0.06800    0.95900    0.73760    1.000
    C48      C        0.06730    0.95420    0.61840    1.000
    H16      H        0.11838    0.92682    0.59265    1.000
    V1       V        0.68935    0.31065    0.50000    1.000
    V2       V        0.18935    0.81065    0.00000    1.000
    V3       V        0.81065    0.18935    0.00000    1.000
    V4       V        0.31065    0.68935    0.50000    1.000
    V5       V        0.68935    0.18935    0.75000    1.000
    V6       V        0.18935    0.68935    0.25000    1.000
    V7       V        0.81065    0.31065    0.25000    1.000
    V8       V        0.31065    0.81065    0.75000    1.000
    O33      O        0.74390    0.25000    0.62500    1.000
    H17      H        0.80600    0.25000    0.62500    1.000
    O34      O        0.24390    0.75000    0.12500    1.000
    H18      H        0.30600    0.75000    0.12500    1.000
    O35      O        0.75610    0.25000    0.12500    1.000
    H19      H        0.69400    0.25000    0.12500    1.000
    O36      O        0.25610    0.75000    0.62500    1.000
    H20      H        0.19400    0.75000    0.62500    1.000
    O37      O        0.75000    0.24390    0.87500    1.000
    H21      H        0.75000    0.30600    0.87500    1.000
    O38      O        0.25000    0.74390    0.37500    1.000
    H22      H        0.25000    0.80600    0.37500    1.000
    O39      O        0.75000    0.25610    0.37500    1.000
    H23      H        0.75000    0.19400    0.37500    1.000
    O40      O        0.25000    0.75610    0.87500    1.000
    H24      H        0.25000    0.69400    0.87500    1.000
    C49      C        0.50000    0.50000    0.70800    1.000
    C50      C        0.50000    0.50000    0.93710    1.000
    H25      H        0.50000    0.50000    0.63100    1.000
    C51      C        0.00000    0.00000    0.20800    1.000
    C52      C        0.00000    0.00000    0.43710    1.000
    H26      H        0.00000    0.00000    0.13100    1.000
    C53      C        0.50000    0.00000    0.95800    1.000
    C54      C        0.50000    0.00000    0.18710    1.000
    H27      H        0.50000    0.00000    0.88100    1.000
    C55      C        0.00000    0.50000    0.45800    1.000
    C56      C        0.00000    0.50000    0.68710    1.000
    H28      H        0.00000    0.50000    0.38100    1.000
    C57      C        0.00000    0.50000    0.04200    1.000
    C58      C        0.00000    0.50000    0.81290    1.000
    H29      H        0.00000    0.50000    0.11900    1.000
    C59      C        0.50000    0.00000    0.54200    1.000
    C60      C        0.50000    0.00000    0.31290    1.000
    H30      H        0.50000    0.00000    0.61900    1.000
    C61      C        0.00000    0.00000    0.79200    1.000
    C62      C        0.00000    0.00000    0.56290    1.000
    H31      H        0.00000    0.00000    0.86900    1.000
    C63      C        0.50000    0.50000    0.29200    1.000
    C64      C        0.50000    0.50000    0.06290    1.000
    H32      H        0.50000    0.50000    0.36900    1.000
