# CIF file generated by openbabel 3.1.0, see https://openbabel.org
data_I
_chemical_name_common 'PUDSOX_clean'
_cell_length_a 14.8987
_cell_length_b 19.0203
_cell_length_c 30.0846
_cell_angle_alpha 97.3324
_cell_angle_beta 90
_cell_angle_gamma 113.057
_space_group_name_H-M_alt 'P 1'
_space_group_name_Hall 'P 1'
loop_
    _symmetry_equiv_pos_as_xyz
    x,y,z
loop_
    _atom_site_label
    _atom_site_type_symbol
    _atom_site_fract_x
    _atom_site_fract_y
    _atom_site_fract_z
    _atom_site_occupancy
    Gd1      Gd       0.36208    0.58271    0.64336    1.000
    Gd2      Gd       0.44618    0.82832    0.65688    1.000
    Gd3      Gd       0.22063    0.58271    0.14336    1.000
    Gd4      Gd       0.38214    0.82832    0.15688    1.000
    H1       H        0.40400    0.81260    0.81030    1.000
    H2       H        0.42620    0.60780    0.78120    1.000
    H3       H        0.42040    0.59240    0.85600    1.000
    H4       H        0.39650    0.58780    0.93800    1.000
    H5       H        0.34110    0.80080    0.00490    1.000
    H6       H        0.35720    0.59720    0.01170    1.000
    H7       H        0.76210    0.85000    0.65470    1.000
    H8       H        0.65350    0.62060    0.64830    1.000
    H9       H        0.91840    0.85500    0.65150    1.000
    H10      H        0.07640    0.83700    0.64740    1.000
    H11      H        0.20650    0.80200    0.64610    1.000
    H12      H        0.02850    0.57920    0.64140    1.000
    H13      H        0.08010    0.33560    0.60180    1.000
    H14      H        0.12140    0.40400    0.73420    1.000
    H15      H        0.98200    0.29880    0.74700    1.000
    H16      H        0.82930    0.17840    0.74740    1.000
    H17      H        0.72340    0.05120    0.60220    1.000
    H18      H        0.69150    0.06560    0.73550    1.000
    H19      H        0.40860    0.81260    0.31030    1.000
    H20      H        0.18160    0.60780    0.28120    1.000
    H21      H        0.17200    0.59240    0.35600    1.000
    H22      H        0.19130    0.58780    0.43800    1.000
    H23      H        0.45970    0.80080    0.50490    1.000
    H24      H        0.24000    0.59720    0.51170    1.000
    H25      H        0.08790    0.85000    0.15470    1.000
    H26      H        0.96710    0.62060    0.14830    1.000
    H27      H        0.93660    0.85500    0.15150    1.000
    H28      H        0.76060    0.83700    0.14740    1.000
    H29      H        0.59550    0.80200    0.14610    1.000
    H30      H        0.55070    0.57920    0.14140    1.000
    H31      H        0.25550    0.33560    0.10180    1.000
    H32      H        0.28260    0.40400    0.23420    1.000
    H33      H        0.31680    0.29880    0.24700    1.000
    H34      H        0.34910    0.17840    0.24740    1.000
    H35      H        0.32780    0.05120    0.10220    1.000
    H36      H        0.37410    0.06560    0.23550    1.000
    C1       C        0.41832    0.71884    0.73862    1.000
    C2       C        0.41540    0.71060    0.78782    1.000
    C3       C        0.40551    0.76782    0.81905    1.000
    C4       C        0.41993    0.64566    0.80220    1.000
    C5       C        0.39810    0.75520    0.86367    1.000
    C6       C        0.41541    0.63582    0.84706    1.000
    C7       C        0.40344    0.69028    0.87823    1.000
    C8       C        0.38744    0.68728    0.92629    1.000
    C9       C        0.37139    0.75038    0.94723    1.000
    C10      C        0.38363    0.62966    0.95093    1.000
    C11      C        0.34995    0.75730    0.99141    1.000
    C12      C        0.36050    0.63600    0.99501    1.000
    C13      C        0.34200    0.69800    0.01548    1.000
    C14      C        0.31279    0.69938    0.06332    1.000
    C15      C        0.59100    0.73460    0.65136    1.000
    C16      C        0.69258    0.73576    0.65129    1.000
    C17      C        0.77200    0.80440    0.65270    1.000
    C18      C        0.70631    0.66782    0.64928    1.000
    C19      C        0.86562    0.80804    0.65130    1.000
    C20      C        0.79986    0.67212    0.64871    1.000
    C21      C        0.87956    0.74012    0.64940    1.000
    C22      C        0.97415    0.73050    0.64679    1.000
    C23      C        0.06629    0.78538    0.64680    1.000
    C24      C        0.96145    0.65410    0.64539    1.000
    C25      C        0.14368    0.76416    0.64600    1.000
    C26      C        0.03886    0.63112    0.64356    1.000
    C27      C        0.13154    0.68768    0.64506    1.000
    C28      C        0.21983    0.66746    0.64645    1.000
    C29      C        0.20618    0.44816    0.66038    1.000
    C30      C        0.11530    0.38000    0.66732    1.000
    C31      C        0.06113    0.32866    0.63095    1.000
    C32      C        0.08494    0.36868    0.70999    1.000
    C33      C        0.97902    0.26744    0.63891    1.000
    C34      C        0.00134    0.30588    0.71793    1.000
    C35      C        0.94782    0.25444    0.68153    1.000
    C36      C        0.85872    0.18324    0.68160    1.000
    C37      C        0.82399    0.14358    0.63888    1.000
    C38      C        0.80810    0.15320    0.71845    1.000
    C39      C        0.74401    0.07642    0.63127    1.000
    C40      C        0.72608    0.08556    0.71109    1.000
    C41      C        0.69353    0.04606    0.66795    1.000
    C42      C        0.60535    0.97230    0.66173    1.000
    C43      C        0.30052    0.71884    0.23862    1.000
    C44      C        0.29520    0.71060    0.28782    1.000
    C45      C        0.36231    0.76782    0.31905    1.000
    C46      C        0.22573    0.64566    0.30220    1.000
    C47      C        0.35710    0.75520    0.36367    1.000
    C48      C        0.22041    0.63582    0.34706    1.000
    C49      C        0.28684    0.69028    0.37823    1.000
    C50      C        0.29984    0.68728    0.42629    1.000
    C51      C        0.37899    0.75038    0.44723    1.000
    C52      C        0.24603    0.62966    0.45093    1.000
    C53      C        0.40735    0.75730    0.49141    1.000
    C54      C        0.27550    0.63600    0.49501    1.000
    C55      C        0.35600    0.69800    0.51548    1.000
    C56      C        0.38659    0.69938    0.56332    1.000
    C57      C        0.14360    0.73460    0.15136    1.000
    C58      C        0.04318    0.73576    0.15129    1.000
    C59      C        0.03240    0.80440    0.15270    1.000
    C60      C        0.96151    0.66782    0.14928    1.000
    C61      C        0.94242    0.80804    0.15130    1.000
    C62      C        0.87226    0.67212    0.14871    1.000
    C63      C        0.86056    0.74012    0.14940    1.000
    C64      C        0.75635    0.73050    0.14679    1.000
    C65      C        0.71909    0.78538    0.14680    1.000
    C66      C        0.69265    0.65410    0.14539    1.000
    C67      C        0.62048    0.76416    0.14600    1.000
    C68      C        0.59226    0.63112    0.14356    1.000
    C69      C        0.55614    0.68768    0.14506    1.000
    C70      C        0.44763    0.66746    0.14645    1.000
    C71      C        0.24198    0.44816    0.16038    1.000
    C72      C        0.26470    0.38000    0.16732    1.000
    C73      C        0.26753    0.32866    0.13095    1.000
    C74      C        0.28374    0.36868    0.20999    1.000
    C75      C        0.28842    0.26744    0.13891    1.000
    C76      C        0.30454    0.30588    0.21793    1.000
    C77      C        0.30662    0.25444    0.18153    1.000
    C78      C        0.32452    0.18324    0.18160    1.000
    C79      C        0.31959    0.14358    0.13888    1.000
    C80      C        0.34510    0.15320    0.21845    1.000
    C81      C        0.33241    0.07642    0.13127    1.000
    C82      C        0.35948    0.08556    0.21109    1.000
    C83      C        0.35253    0.04606    0.16795    1.000
    C84      C        0.36695    0.97230    0.16173    1.000
    S1       S        0.37541    0.81378    0.90843    1.000
    S2       S        0.83753    0.59428    0.64809    1.000
    S3       S        0.89985    0.19320    0.59800    1.000
    S4       S        0.43837    0.81378    0.40843    1.000
    S5       S        0.75675    0.59428    0.14809    1.000
    S6       S        0.29335    0.19320    0.09800    1.000
    O1       O        0.43846    0.78392    0.72804    1.000
    O2       O        0.39878    0.65736    0.71264    1.000
    O3       O        0.45637    0.88694    0.91886    1.000
    O4       O        0.28134    0.81548    0.90160    1.000
    O5       O        0.32073    0.76346    0.08436    1.000
    O6       O        0.28283    0.63666    0.07825    1.000
    O7       O        0.58316    0.79752    0.66221    1.000
    O8       O        0.52242    0.67124    0.64007    1.000
    O9       O        0.82224    0.56408    0.69061    1.000
    O10      O        0.80060    0.54080    0.60809    1.000
    O11      O        0.30188    0.72220    0.65012    1.000
    O12      O        0.20673    0.59846    0.64428    1.000
    O13      O        0.23383    0.45506    0.62065    1.000
    O14      O        0.25148    0.49596    0.69336    1.000
    O15      O        0.94884    0.14828    0.57640    1.000
    O16      O        0.84832    0.22284    0.57012    1.000
    O17      O        0.58146    0.93272    0.62359    1.000
    O18      O        0.55752    0.95044    0.69542    1.000
    O19      O        0.34546    0.78392    0.22804    1.000
    O20      O        0.25858    0.65736    0.21264    1.000
    O21      O        0.43057    0.88694    0.41886    1.000
    O22      O        0.53414    0.81548    0.40160    1.000
    O23      O        0.44273    0.76346    0.58436    1.000
    O24      O        0.35383    0.63666    0.57825    1.000
    O25      O        0.21436    0.79752    0.16221    1.000
    O26      O        0.14882    0.67124    0.14007    1.000
    O27      O        0.74184    0.56408    0.19061    1.000
    O28      O        0.74020    0.54080    0.10809    1.000
    O29      O        0.42032    0.72220    0.15012    1.000
    O30      O        0.39173    0.59846    0.14428    1.000
    O31      O        0.22123    0.45506    0.12065    1.000
    O32      O        0.24448    0.49596    0.19336    1.000
    O33      O        0.19944    0.14828    0.07640    1.000
    O34      O        0.37452    0.22284    0.07012    1.000
    O35      O        0.35126    0.93272    0.12359    1.000
    O36      O        0.39292    0.95044    0.19542    1.000
    Gd5      Gd       0.77937    0.41729    0.85664    1.000
    Gd6      Gd       0.61785    0.17166    0.84312    1.000
    Gd7      Gd       0.63792    0.41729    0.35664    1.000
    Gd8      Gd       0.55381    0.17166    0.34312    1.000
    H37      H        0.59140    0.18740    0.68970    1.000
    H38      H        0.81840    0.39220    0.71880    1.000
    H39      H        0.82800    0.40760    0.64400    1.000
    H40      H        0.80870    0.41220    0.56200    1.000
    H41      H        0.54030    0.19920    0.49510    1.000
    H42      H        0.76000    0.40280    0.48830    1.000
    H43      H        0.91210    0.15000    0.84530    1.000
    H44      H        0.03290    0.37940    0.85170    1.000
    H45      H        0.06340    0.14500    0.84850    1.000
    H46      H        0.23940    0.16300    0.85260    1.000
    H47      H        0.40450    0.19800    0.85390    1.000
    H48      H        0.44930    0.42080    0.85860    1.000
    H49      H        0.74450    0.66440    0.89820    1.000
    H50      H        0.71740    0.59600    0.76580    1.000
    H51      H        0.68320    0.70120    0.75300    1.000
    H52      H        0.65090    0.82160    0.75260    1.000
    H53      H        0.67220    0.94880    0.89780    1.000
    H54      H        0.62590    0.93440    0.76450    1.000
    H55      H        0.59600    0.18740    0.18970    1.000
    H56      H        0.57380    0.39220    0.21880    1.000
    H57      H        0.57960    0.40760    0.14400    1.000
    H58      H        0.60350    0.41220    0.06200    1.000
    H59      H        0.65890    0.19920    0.99510    1.000
    H60      H        0.64280    0.40280    0.98830    1.000
    H61      H        0.23790    0.15000    0.34530    1.000
    H62      H        0.34650    0.37940    0.35170    1.000
    H63      H        0.08160    0.14500    0.34850    1.000
    H64      H        0.92360    0.16300    0.35260    1.000
    H65      H        0.79350    0.19800    0.35390    1.000
    H66      H        0.97150    0.42080    0.35860    1.000
    H67      H        0.91990    0.66440    0.39820    1.000
    H68      H        0.87860    0.59600    0.26580    1.000
    H69      H        0.01800    0.70120    0.25300    1.000
    H70      H        0.17070    0.82160    0.25260    1.000
    H71      H        0.27660    0.94880    0.39780    1.000
    H72      H        0.30850    0.93440    0.26450    1.000
    C85      C        0.69948    0.28116    0.76138    1.000
    C86      C        0.70480    0.28940    0.71218    1.000
    C87      C        0.63769    0.23218    0.68095    1.000
    C88      C        0.77427    0.35434    0.69780    1.000
    C89      C        0.64290    0.24480    0.63633    1.000
    C90      C        0.77959    0.36418    0.65294    1.000
    C91      C        0.71316    0.30972    0.62177    1.000
    C92      C        0.70016    0.31272    0.57371    1.000
    C93      C        0.62101    0.24962    0.55277    1.000
    C94      C        0.75397    0.37034    0.54907    1.000
    C95      C        0.59265    0.24270    0.50859    1.000
    C96      C        0.72450    0.36400    0.50499    1.000
    C97      C        0.64400    0.30200    0.48452    1.000
    C98      C        0.61341    0.30062    0.43668    1.000
    C99      C        0.85640    0.26540    0.84864    1.000
    C100     C        0.95682    0.26424    0.84871    1.000
    C101     C        0.96760    0.19560    0.84730    1.000
    C102     C        0.03849    0.33218    0.85072    1.000
    C103     C        0.05758    0.19196    0.84870    1.000
    C104     C        0.12774    0.32788    0.85129    1.000
    C105     C        0.13944    0.25988    0.85060    1.000
    C106     C        0.24365    0.26950    0.85321    1.000
    C107     C        0.28091    0.21462    0.85320    1.000
    C108     C        0.30735    0.34590    0.85461    1.000
    C109     C        0.37952    0.23584    0.85400    1.000
    C110     C        0.40774    0.36888    0.85644    1.000
    C111     C        0.44386    0.31232    0.85494    1.000
    C112     C        0.55237    0.33254    0.85355    1.000
    C113     C        0.75802    0.55184    0.83962    1.000
    C114     C        0.73530    0.62000    0.83268    1.000
    C115     C        0.73247    0.67134    0.86905    1.000
    C116     C        0.71626    0.63132    0.79001    1.000
    C117     C        0.71158    0.73256    0.86109    1.000
    C118     C        0.69546    0.69412    0.78207    1.000
    C119     C        0.69338    0.74556    0.81847    1.000
    C120     C        0.67548    0.81676    0.81840    1.000
    C121     C        0.68041    0.85642    0.86112    1.000
    C122     C        0.65490    0.84680    0.78155    1.000
    C123     C        0.66759    0.92358    0.86873    1.000
    C124     C        0.64052    0.91444    0.78891    1.000
    C125     C        0.64747    0.95394    0.83205    1.000
    C126     C        0.63305    0.02770    0.83827    1.000
    C127     C        0.58168    0.28116    0.26138    1.000
    C128     C        0.58460    0.28940    0.21218    1.000
    C129     C        0.59449    0.23218    0.18095    1.000
    C130     C        0.58007    0.35434    0.19780    1.000
    C131     C        0.60190    0.24480    0.13633    1.000
    C132     C        0.58459    0.36418    0.15294    1.000
    C133     C        0.59656    0.30972    0.12177    1.000
    C134     C        0.61256    0.31272    0.07371    1.000
    C135     C        0.62861    0.24962    0.05277    1.000
    C136     C        0.61637    0.37034    0.04907    1.000
    C137     C        0.65005    0.24270    0.00859    1.000
    C138     C        0.63950    0.36400    0.00499    1.000
    C139     C        0.65800    0.30200    0.98452    1.000
    C140     C        0.68721    0.30062    0.93668    1.000
    C141     C        0.40900    0.26540    0.34864    1.000
    C142     C        0.30742    0.26424    0.34871    1.000
    C143     C        0.22800    0.19560    0.34730    1.000
    C144     C        0.29369    0.33218    0.35072    1.000
    C145     C        0.13438    0.19196    0.34870    1.000
    C146     C        0.20014    0.32788    0.35129    1.000
    C147     C        0.12044    0.25988    0.35060    1.000
    C148     C        0.02585    0.26950    0.35321    1.000
    C149     C        0.93371    0.21462    0.35320    1.000
    C150     C        0.03855    0.34590    0.35461    1.000
    C151     C        0.85632    0.23584    0.35400    1.000
    C152     C        0.96114    0.36888    0.35644    1.000
    C153     C        0.86846    0.31232    0.35494    1.000
    C154     C        0.78017    0.33254    0.35355    1.000
    C155     C        0.79382    0.55184    0.33962    1.000
    C156     C        0.88470    0.62000    0.33268    1.000
    C157     C        0.93887    0.67134    0.36905    1.000
    C158     C        0.91506    0.63132    0.29001    1.000
    C159     C        0.02098    0.73256    0.36109    1.000
    C160     C        0.99866    0.69412    0.28207    1.000
    C161     C        0.05218    0.74556    0.31847    1.000
    C162     C        0.14128    0.81676    0.31840    1.000
    C163     C        0.17601    0.85642    0.36112    1.000
    C164     C        0.19190    0.84680    0.28155    1.000
    C165     C        0.25599    0.92358    0.36873    1.000
    C166     C        0.27392    0.91444    0.28891    1.000
    C167     C        0.30647    0.95394    0.33205    1.000
    C168     C        0.39465    0.02770    0.33827    1.000
    S7       S        0.56163    0.18622    0.59157    1.000
    S8       S        0.24325    0.40572    0.85191    1.000
    S9       S        0.70665    0.80680    0.90200    1.000
    S10      S        0.62459    0.18622    0.09157    1.000
    S11      S        0.16247    0.40572    0.35191    1.000
    S12      S        0.10015    0.80680    0.40200    1.000
    O37      O        0.65454    0.21608    0.77196    1.000
    O38      O        0.74142    0.34264    0.78736    1.000
    O39      O        0.56943    0.11306    0.58114    1.000
    O40      O        0.46586    0.18452    0.59840    1.000
    O41      O        0.55727    0.23654    0.41564    1.000
    O42      O        0.64617    0.36334    0.42175    1.000
    O43      O        0.78564    0.20248    0.83779    1.000
    O44      O        0.85118    0.32876    0.85993    1.000
    O45      O        0.25816    0.43592    0.80939    1.000
    O46      O        0.25980    0.45920    0.89191    1.000
    O47      O        0.57968    0.27780    0.84988    1.000
    O48      O        0.60827    0.40154    0.85572    1.000
    O49      O        0.77877    0.54494    0.87935    1.000
    O50      O        0.75552    0.50404    0.80664    1.000
    O51      O        0.80056    0.85172    0.92360    1.000
    O52      O        0.62548    0.77716    0.92988    1.000
    O53      O        0.64874    0.06728    0.87641    1.000
    O54      O        0.60708    0.04956    0.80458    1.000
    O55      O        0.56154    0.21608    0.27196    1.000
    O56      O        0.60122    0.34264    0.28736    1.000
    O57      O        0.54363    0.11306    0.08114    1.000
    O58      O        0.71866    0.18452    0.09840    1.000
    O59      O        0.67927    0.23654    0.91564    1.000
    O60      O        0.71717    0.36334    0.92175    1.000
    O61      O        0.41684    0.20248    0.33779    1.000
    O62      O        0.47758    0.32876    0.35993    1.000
    O63      O        0.17776    0.43592    0.30939    1.000
    O64      O        0.19940    0.45920    0.39191    1.000
    O65      O        0.69812    0.27780    0.34988    1.000
    O66      O        0.79327    0.40154    0.35572    1.000
    O67      O        0.76617    0.54494    0.37935    1.000
    O68      O        0.74852    0.50404    0.30664    1.000
    O69      O        0.05116    0.85172    0.42360    1.000
    O70      O        0.15168    0.77716    0.42988    1.000
    O71      O        0.41854    0.06728    0.37641    1.000
    O72      O        0.44248    0.04956    0.30458    1.000
