# CIF file generated by openbabel 3.1.0, see https://openbabel.org
data_I
_chemical_name_common 'OBEDAA_charged'
_cell_length_a 11.7135
_cell_length_b 11.7135
_cell_length_c 23.5469
_cell_angle_alpha 78.0901
_cell_angle_beta 78.0901
_cell_angle_gamma 79.4462
_space_group_name_H-M_alt 'P 1'
_space_group_name_Hall 'P 1'
loop_
    _symmetry_equiv_pos_as_xyz
    x,y,z
loop_
    _atom_site_label
    _atom_site_type_symbol
    _atom_site_fract_x
    _atom_site_fract_y
    _atom_site_fract_z
    _atom_site_occupancy
    Ag1      Ag       0.11247    0.08975    0.27392    1.000
    Ag2      Ag       0.08975    0.11247    0.77392    1.000
    H1       H        0.45830    0.20850    0.28370    1.000
    H2       H        0.66040    0.14280    0.26490    1.000
    H3       H        0.68900    0.21260    0.42160    1.000
    H4       H        0.48680    0.26960    0.44090    1.000
    H5       H        0.45950    0.46330    0.34620    1.000
    H6       H        0.40880    0.66660    0.32450    1.000
    H7       H        0.07250    0.63050    0.32790    1.000
    H8       H        0.12320    0.42720    0.35000    1.000
    H9       H        0.22580    0.42980    0.45860    1.000
    H10      H        0.16060    0.38180    0.55970    1.000
    H11      H        0.23500    0.03740    0.54740    1.000
    H12      H        0.29600    0.08680    0.44710    1.000
    H13      H        0.20850    0.45830    0.78370    1.000
    H14      H        0.14280    0.66040    0.76490    1.000
    H15      H        0.21260    0.68900    0.92160    1.000
    H16      H        0.26960    0.48680    0.94090    1.000
    H17      H        0.46330    0.45950    0.84620    1.000
    H18      H        0.66660    0.40880    0.82450    1.000
    H19      H        0.63050    0.07250    0.82790    1.000
    H20      H        0.42720    0.12320    0.85000    1.000
    H21      H        0.42980    0.22580    0.95860    1.000
    H22      H        0.38180    0.16060    0.05970    1.000
    H23      H        0.03740    0.23500    0.04740    1.000
    H24      H        0.08680    0.29600    0.94710    1.000
    C1       C        0.31960    0.29240    0.37640    1.000
    C2       C        0.45290    0.24510    0.36440    1.000
    C3       C        0.50450    0.20790    0.31150    1.000
    C4       C        0.62560    0.16980    0.29990    1.000
    C5       C        0.69420    0.17280    0.34140    1.000
    C6       C        0.64290    0.21070    0.39410    1.000
    C7       C        0.52190    0.24550    0.40530    1.000
    C8       C        0.81940    0.14000    0.32730    1.000
    C9       C        0.25810    0.23050    0.34500    1.000
    C10      C        0.29340    0.42540    0.35270    1.000
    C11      C        0.38190    0.49670    0.34350    1.000
    C12      C        0.35120    0.61820    0.33040    1.000
    C13      C        0.23620    0.66820    0.32590    1.000
    C14      C        0.14920    0.59720    0.33240    1.000
    C15      C        0.18010    0.47570    0.34570    1.000
    C16      C        0.20630    0.79550    0.31520    1.000
    C17      C        0.26930    0.26390    0.44280    1.000
    C18      C        0.22750    0.35110    0.47650    1.000
    C19      C        0.18790    0.32290    0.53710    1.000
    C20      C        0.19010    0.20470    0.56290    1.000
    C21      C        0.23230    0.11630    0.52950    1.000
    C22      C        0.26990    0.14590    0.46980    1.000
    C23      C        0.15250    0.17650    0.62580    1.000
    C24      C        0.29240    0.31960    0.87640    1.000
    C25      C        0.24510    0.45290    0.86440    1.000
    C26      C        0.20790    0.50450    0.81150    1.000
    C27      C        0.16980    0.62560    0.79990    1.000
    C28      C        0.17280    0.69420    0.84140    1.000
    C29      C        0.21070    0.64290    0.89410    1.000
    C30      C        0.24550    0.52190    0.90530    1.000
    C31      C        0.14000    0.81940    0.82730    1.000
    C32      C        0.23050    0.25810    0.84500    1.000
    C33      C        0.42540    0.29340    0.85270    1.000
    C34      C        0.49670    0.38190    0.84350    1.000
    C35      C        0.61820    0.35120    0.83040    1.000
    C36      C        0.66820    0.23620    0.82590    1.000
    C37      C        0.59720    0.14920    0.83240    1.000
    C38      C        0.47570    0.18010    0.84570    1.000
    C39      C        0.79550    0.20630    0.81520    1.000
    C40      C        0.26390    0.26930    0.94280    1.000
    C41      C        0.35110    0.22750    0.97650    1.000
    C42      C        0.32290    0.18790    0.03710    1.000
    C43      C        0.20470    0.19010    0.06290    1.000
    C44      C        0.11630    0.23230    0.02950    1.000
    C45      C        0.14590    0.26990    0.96980    1.000
    C46      C        0.17650    0.15250    0.12580    1.000
    N1       N        0.91980    0.11580    0.31440    1.000
    N2       N        0.18310    0.89490    0.30640    1.000
    N3       N        0.12410    0.15350    0.67560    1.000
    N4       N        0.21220    0.18480    0.32010    1.000
    N5       N        0.11580    0.91980    0.81440    1.000
    N6       N        0.89490    0.18310    0.80640    1.000
    N7       N        0.15350    0.12410    0.17560    1.000
    N8       N        0.18480    0.21220    0.82010    1.000
    Ag3      Ag       0.91025    0.88753    0.22608    1.000
    Ag4      Ag       0.88753    0.91025    0.72608    1.000
    H25      H        0.79150    0.54170    0.21630    1.000
    H26      H        0.85720    0.33960    0.23510    1.000
    H27      H        0.78740    0.31100    0.07840    1.000
    H28      H        0.73040    0.51320    0.05910    1.000
    H29      H        0.53670    0.54050    0.15380    1.000
    H30      H        0.33340    0.59120    0.17550    1.000
    H31      H        0.36950    0.92750    0.17210    1.000
    H32      H        0.57280    0.87680    0.15000    1.000
    H33      H        0.57020    0.77420    0.04140    1.000
    H34      H        0.61820    0.83940    0.94030    1.000
    H35      H        0.96260    0.76500    0.95260    1.000
    H36      H        0.91320    0.70400    0.05290    1.000
    H37      H        0.54170    0.79150    0.71630    1.000
    H38      H        0.33960    0.85720    0.73510    1.000
    H39      H        0.31100    0.78740    0.57840    1.000
    H40      H        0.51320    0.73040    0.55910    1.000
    H41      H        0.54050    0.53670    0.65380    1.000
    H42      H        0.59120    0.33340    0.67550    1.000
    H43      H        0.92750    0.36950    0.67210    1.000
    H44      H        0.87680    0.57280    0.65000    1.000
    H45      H        0.77420    0.57020    0.54140    1.000
    H46      H        0.83940    0.61820    0.44030    1.000
    H47      H        0.76500    0.96260    0.45260    1.000
    H48      H        0.70400    0.91320    0.55290    1.000
    C47      C        0.70760    0.68040    0.12360    1.000
    C48      C        0.75490    0.54710    0.13560    1.000
    C49      C        0.79210    0.49550    0.18850    1.000
    C50      C        0.83020    0.37440    0.20010    1.000
    C51      C        0.82720    0.30580    0.15860    1.000
    C52      C        0.78930    0.35710    0.10590    1.000
    C53      C        0.75450    0.47810    0.09470    1.000
    C54      C        0.86000    0.18060    0.17270    1.000
    C55      C        0.76950    0.74190    0.15500    1.000
    C56      C        0.57460    0.70660    0.14730    1.000
    C57      C        0.50330    0.61810    0.15650    1.000
    C58      C        0.38180    0.64880    0.16960    1.000
    C59      C        0.33180    0.76380    0.17410    1.000
    C60      C        0.40280    0.85080    0.16760    1.000
    C61      C        0.52430    0.81990    0.15430    1.000
    C62      C        0.20450    0.79370    0.18480    1.000
    C63      C        0.73610    0.73070    0.05720    1.000
    C64      C        0.64890    0.77250    0.02350    1.000
    C65      C        0.67710    0.81210    0.96290    1.000
    C66      C        0.79530    0.80990    0.93710    1.000
    C67      C        0.88370    0.76770    0.97050    1.000
    C68      C        0.85410    0.73010    0.03020    1.000
    C69      C        0.82350    0.84750    0.87420    1.000
    C70      C        0.68040    0.70760    0.62360    1.000
    C71      C        0.54710    0.75490    0.63560    1.000
    C72      C        0.49550    0.79210    0.68850    1.000
    C73      C        0.37440    0.83020    0.70010    1.000
    C74      C        0.30580    0.82720    0.65860    1.000
    C75      C        0.35710    0.78930    0.60590    1.000
    C76      C        0.47810    0.75450    0.59470    1.000
    C77      C        0.18060    0.86000    0.67270    1.000
    C78      C        0.74190    0.76950    0.65500    1.000
    C79      C        0.70660    0.57460    0.64730    1.000
    C80      C        0.61810    0.50330    0.65650    1.000
    C81      C        0.64880    0.38180    0.66960    1.000
    C82      C        0.76380    0.33180    0.67410    1.000
    C83      C        0.85080    0.40280    0.66760    1.000
    C84      C        0.81990    0.52430    0.65430    1.000
    C85      C        0.79370    0.20450    0.68480    1.000
    C86      C        0.73070    0.73610    0.55720    1.000
    C87      C        0.77250    0.64890    0.52350    1.000
    C88      C        0.81210    0.67710    0.46290    1.000
    C89      C        0.80990    0.79530    0.43710    1.000
    C90      C        0.76770    0.88370    0.47050    1.000
    C91      C        0.73010    0.85410    0.53020    1.000
    C92      C        0.84750    0.82350    0.37420    1.000
    N9       N        0.88420    0.08020    0.18560    1.000
    N10      N        0.10510    0.81690    0.19360    1.000
    N11      N        0.84650    0.87590    0.82440    1.000
    N12      N        0.81520    0.78780    0.17990    1.000
    N13      N        0.08020    0.88420    0.68560    1.000
    N14      N        0.81690    0.10510    0.69360    1.000
    N15      N        0.87590    0.84650    0.32440    1.000
    N16      N        0.78780    0.81520    0.67990    1.000
    B1       B        0.85330    0.44150    0.35470    1.000
    F1       F        0.75770    0.44090    0.33170    1.000
    F2       F        0.88230    0.55170    0.34630    1.000
    F3       F        0.81940    0.41000    0.41590    1.000
    F4       F        0.94380    0.36400    0.33210    1.000
    B2       B        0.55850    0.14670    0.14530    1.000
    F5       F        0.55910    0.24230    0.16830    1.000
    F6       F        0.44830    0.11770    0.15370    1.000
    F7       F        0.59000    0.18060    0.08410    1.000
    F8       F        0.63600    0.05620    0.16790    1.000
    B3       B        0.14670    0.55850    0.64530    1.000
    F9       F        0.24230    0.55910    0.66830    1.000
    F10      F        0.11770    0.44830    0.65370    1.000
    F11      F        0.18060    0.59000    0.58410    1.000
    F12      F        0.05620    0.63600    0.66790    1.000
    B4       B        0.44150    0.85330    0.85470    1.000
    F13      F        0.44090    0.75770    0.83170    1.000
    F14      F        0.55170    0.88230    0.84630    1.000
    F15      F        0.41000    0.81940    0.91590    1.000
    F16      F        0.36400    0.94380    0.83210    1.000
