# CIF file generated by openbabel 3.1.0, see https://openbabel.org
data_I
_chemical_name_common 'PUMNIV_clean'
_cell_length_a 9.2515
_cell_length_b 14.167
_cell_length_c 16.5898
_cell_angle_alpha 90
_cell_angle_beta 93.032
_cell_angle_gamma 90
_space_group_name_H-M_alt 'P 1'
_space_group_name_Hall 'P 1'
loop_
    _symmetry_equiv_pos_as_xyz
    x,y,z
loop_
    _atom_site_label
    _atom_site_type_symbol
    _atom_site_fract_x
    _atom_site_fract_y
    _atom_site_fract_z
    _atom_site_occupancy
    Cd1      Cd       0.97316    0.84317    0.24417    1.000
    Cd2      Cd       0.52684    0.34317    0.25583    1.000
    Cd3      Cd       0.02684    0.15683    0.75583    1.000
    Cd4      Cd       0.47316    0.65683    0.74417    1.000
    Hg1      Hg       0.97997    0.79569    0.91817    1.000
    Hg2      Hg       0.52003    0.29569    0.58183    1.000
    Hg3      Hg       0.02003    0.20431    0.08183    1.000
    Hg4      Hg       0.47997    0.70431    0.41817    1.000
    C1       C        0.05700    0.70470    0.08460    1.000
    C2       C        0.14110    0.71080    0.39290    1.000
    C3       C        0.63530    0.75140    0.25750    1.000
    C4       C        0.86680    0.00560    0.10210    1.000
    C5       C        0.44300    0.20470    0.41540    1.000
    C6       C        0.35890    0.21080    0.10710    1.000
    C7       C        0.86470    0.25140    0.24250    1.000
    C8       C        0.63320    0.50560    0.39790    1.000
    C9       C        0.94300    0.29530    0.91540    1.000
    C10      C        0.85890    0.28920    0.60710    1.000
    C11      C        0.36470    0.24860    0.74250    1.000
    C12      C        0.13320    0.99440    0.89790    1.000
    C13      C        0.55700    0.79530    0.58460    1.000
    C14      C        0.64110    0.78920    0.89290    1.000
    C15      C        0.13530    0.74860    0.75750    1.000
    C16      C        0.36680    0.49440    0.60210    1.000
    S1       S        0.06034    0.64743    0.99806    1.000
    S2       S        0.23573    0.65489    0.46509    1.000
    S3       S        0.46344    0.72186    0.26752    1.000
    S4       S        0.81813    0.09207    0.03919    1.000
    S5       S        0.43966    0.14743    0.50194    1.000
    S6       S        0.26427    0.15489    0.03491    1.000
    S7       S        0.03656    0.22186    0.23248    1.000
    S8       S        0.68187    0.59207    0.46081    1.000
    S9       S        0.93966    0.35257    0.00194    1.000
    S10      S        0.76427    0.34511    0.53491    1.000
    S11      S        0.53656    0.27814    0.73248    1.000
    S12      S        0.18187    0.90793    0.96081    1.000
    S13      S        0.56034    0.85257    0.49806    1.000
    S14      S        0.73573    0.84511    0.96509    1.000
    S15      S        0.96344    0.77814    0.76752    1.000
    S16      S        0.31813    0.40793    0.53919    1.000
    N1       N        0.05290    0.74390    0.14450    1.000
    N2       N        0.07250    0.74990    0.34410    1.000
    N3       N        0.75090    0.77210    0.24710    1.000
    N4       N        0.89670    0.94640    0.14410    1.000
    N5       N        0.44710    0.24390    0.35550    1.000
    N6       N        0.42750    0.24990    0.15590    1.000
    N7       N        0.74910    0.27210    0.25290    1.000
    N8       N        0.60330    0.44640    0.35590    1.000
    N9       N        0.94710    0.25610    0.85550    1.000
    N10      N        0.92750    0.25010    0.65590    1.000
    N11      N        0.24910    0.22790    0.75290    1.000
    N12      N        0.10330    0.05360    0.85590    1.000
    N13      N        0.55290    0.75610    0.64450    1.000
    N14      N        0.57250    0.75010    0.84410    1.000
    N15      N        0.25090    0.72790    0.74710    1.000
    N16      N        0.39670    0.55360    0.64410    1.000
