# CIF file generated by openbabel 3.1.0, see https://openbabel.org
data_I
_chemical_name_common 'MAZJEC_clean'
_cell_length_a 9.0164
_cell_length_b 9.0164
_cell_length_c 17.078
_cell_angle_alpha 90
_cell_angle_beta 90
_cell_angle_gamma 117.031
_space_group_name_H-M_alt 'P 1'
_space_group_name_Hall 'P 1'
loop_
    _symmetry_equiv_pos_as_xyz
    x,y,z
loop_
    _atom_site_label
    _atom_site_type_symbol
    _atom_site_fract_x
    _atom_site_fract_y
    _atom_site_fract_z
    _atom_site_occupancy
    Gd1      Gd       0.00000    0.00000    0.00000    1.000
    Gd2      Gd       0.00000    0.00000    0.50000    1.000
    Gd3      Gd       0.34991    0.65509    0.25000    1.000
    Gd4      Gd       0.65509    0.34991    0.75000    1.000
    H1       H        0.56200    0.96520    0.08430    1.000
    H2       H        0.50230    0.81930    0.02330    1.000
    H3       H        0.58340    0.98120    0.91000    1.000
    H4       H        0.62460    0.13940    0.96180    1.000
    H5       H        0.39390    0.40170    0.08650    1.000
    H6       H        0.31600    0.48880    0.03250    1.000
    H7       H        0.96520    0.56200    0.91570    1.000
    H8       H        0.81930    0.50230    0.97670    1.000
    H9       H        0.98120    0.58340    0.09000    1.000
    H10      H        0.13940    0.62460    0.03820    1.000
    H11      H        0.40170    0.39390    0.91350    1.000
    H12      H        0.48880    0.31600    0.96750    1.000
    H13      H        0.96520    0.56200    0.58430    1.000
    H14      H        0.81930    0.50230    0.52330    1.000
    H15      H        0.98120    0.58340    0.41000    1.000
    H16      H        0.13940    0.62460    0.46180    1.000
    H17      H        0.40170    0.39390    0.58650    1.000
    H18      H        0.48880    0.31600    0.53250    1.000
    H19      H        0.56200    0.96520    0.41570    1.000
    H20      H        0.50230    0.81930    0.47670    1.000
    H21      H        0.58340    0.98120    0.59000    1.000
    H22      H        0.62460    0.13940    0.53820    1.000
    H23      H        0.39390    0.40170    0.41350    1.000
    H24      H        0.31600    0.48880    0.46750    1.000
    C1       C        0.65350    0.80250    0.10590    1.000
    C2       C        0.59720    0.89680    0.05320    1.000
    C3       C        0.66940    0.06860    0.94020    1.000
    C4       C        0.81500    0.16900    0.88940    1.000
    C5       C        0.15150    0.33650    0.11420    1.000
    C6       C        0.29500    0.38500    0.05770    1.000
    C7       C        0.80250    0.65350    0.89410    1.000
    C8       C        0.89680    0.59720    0.94680    1.000
    C9       C        0.06860    0.66940    0.05980    1.000
    C10      C        0.16900    0.81500    0.11060    1.000
    C11      C        0.33650    0.15150    0.88580    1.000
    C12      C        0.38500    0.29500    0.94230    1.000
    C13      C        0.80250    0.65350    0.60590    1.000
    C14      C        0.89680    0.59720    0.55320    1.000
    C15      C        0.06860    0.66940    0.44020    1.000
    C16      C        0.16900    0.81500    0.38940    1.000
    C17      C        0.33650    0.15150    0.61420    1.000
    C18      C        0.38500    0.29500    0.55770    1.000
    C19      C        0.65350    0.80250    0.39410    1.000
    C20      C        0.59720    0.89680    0.44680    1.000
    C21      C        0.66940    0.06860    0.55980    1.000
    C22      C        0.81500    0.16900    0.61060    1.000
    C23      C        0.15150    0.33650    0.38580    1.000
    C24      C        0.29500    0.38500    0.44230    1.000
    O1       O        0.80080    0.82700    0.09620    1.000
    O2       O        0.55580    0.70740    0.15640    1.000
    O3       O        0.72390    0.99910    0.00150    1.000
    O4       O        0.79370    0.24830    0.83510    1.000
    O5       O        0.95710    0.17690    0.90420    1.000
    O6       O        0.02440    0.20320    0.09790    1.000
    O7       O        0.17100    0.43700    0.16740    1.000
    O8       O        0.82700    0.80080    0.90380    1.000
    O9       O        0.70740    0.55580    0.84360    1.000
    O10      O        0.99910    0.72390    0.99850    1.000
    O11      O        0.24830    0.79370    0.16490    1.000
    O12      O        0.17690    0.95710    0.09580    1.000
    O13      O        0.20320    0.02440    0.90210    1.000
    O14      O        0.43700    0.17100    0.83260    1.000
    O15      O        0.82700    0.80080    0.59620    1.000
    O16      O        0.70740    0.55580    0.65640    1.000
    O17      O        0.99910    0.72390    0.50150    1.000
    O18      O        0.24830    0.79370    0.33510    1.000
    O19      O        0.17690    0.95710    0.40420    1.000
    O20      O        0.20320    0.02440    0.59790    1.000
    O21      O        0.43700    0.17100    0.66740    1.000
    O22      O        0.80080    0.82700    0.40380    1.000
    O23      O        0.55580    0.70740    0.34360    1.000
    O24      O        0.72390    0.99910    0.49850    1.000
    O25      O        0.79370    0.24830    0.66490    1.000
    O26      O        0.95710    0.17690    0.59580    1.000
    O27      O        0.02440    0.20320    0.40210    1.000
    O28      O        0.17100    0.43700    0.33260    1.000
    O29      O        0.26200    0.26200    0.00000    1.000
    O30      O        0.26200    0.26200    0.50000    1.000
