# CIF file generated by openbabel 3.1.0, see https://openbabel.org
data_I
_chemical_name_common 'OKIVIO_charged'
_cell_length_a 15.8318
_cell_length_b 15.8318
_cell_length_c 21.957
_cell_angle_alpha 90
_cell_angle_beta 90
_cell_angle_gamma 90
_space_group_name_H-M_alt 'P 1'
_space_group_name_Hall 'P 1'
loop_
    _symmetry_equiv_pos_as_xyz
    x,y,z
loop_
    _atom_site_label
    _atom_site_type_symbol
    _atom_site_fract_x
    _atom_site_fract_y
    _atom_site_fract_z
    _atom_site_occupancy
    Cd1      Cd       0.94259    0.05741    0.75000    1.000
    Cd2      Cd       0.05741    0.94259    0.25000    1.000
    Cd3      Cd       0.44259    0.44259    0.50000    1.000
    Cd4      Cd       0.55741    0.55741    0.00000    1.000
    H1       H        0.46500    0.38850    0.64970    1.000
    H2       H        0.41780    0.28550    0.71260    1.000
    H3       H        0.21680    0.25880    0.60430    1.000
    H4       H        0.27350    0.36030    0.54200    1.000
    H5       H        0.34710    0.20420    0.77970    1.000
    H6       H        0.29570    0.09190    0.83330    1.000
    H7       H        0.19830    0.00160    0.79270    1.000
    H8       H        0.20560    0.13490    0.63660    1.000
    H9       H        0.95800    0.88220    0.53990    1.000
    H10      H        0.93800    0.77110    0.47270    1.000
    H11      H        0.04030    0.66960    0.46090    1.000
    H12      H        0.17390    0.77640    0.59490    1.000
    H13      H        0.15570    0.60510    0.43710    1.000
    H14      H        0.26650    0.51190    0.42760    1.000
    H15      H        0.33730    0.55640    0.59360    1.000
    H16      H        0.23250    0.65050    0.60770    1.000
    H17      H        0.25750    0.97670    0.60900    1.000
    H18      H        0.26060    0.90040    0.64570    1.000
    H19      H        0.53500    0.61150    0.14970    1.000
    H20      H        0.58220    0.71450    0.21260    1.000
    H21      H        0.78320    0.74120    0.10430    1.000
    H22      H        0.72650    0.63970    0.04200    1.000
    H23      H        0.65290    0.79580    0.27970    1.000
    H24      H        0.70430    0.90810    0.33330    1.000
    H25      H        0.80170    0.99840    0.29270    1.000
    H26      H        0.79440    0.86510    0.13660    1.000
    H27      H        0.04200    0.11780    0.03990    1.000
    H28      H        0.06200    0.22890    0.97270    1.000
    H29      H        0.95970    0.33040    0.96090    1.000
    H30      H        0.82610    0.22360    0.09490    1.000
    H31      H        0.84430    0.39490    0.93710    1.000
    H32      H        0.73350    0.48810    0.92760    1.000
    H33      H        0.66270    0.44360    0.09360    1.000
    H34      H        0.76750    0.34950    0.10770    1.000
    H35      H        0.74250    0.02330    0.10900    1.000
    H36      H        0.73940    0.09960    0.14570    1.000
    H37      H        0.11150    0.96500    0.39970    1.000
    H38      H        0.21450    0.91780    0.46260    1.000
    H39      H        0.24120    0.71680    0.35430    1.000
    H40      H        0.13970    0.77350    0.29200    1.000
    H41      H        0.29580    0.84710    0.52970    1.000
    H42      H        0.40810    0.79570    0.58330    1.000
    H43      H        0.49840    0.69830    0.54270    1.000
    H44      H        0.36510    0.70560    0.38660    1.000
    H45      H        0.61780    0.45800    0.28990    1.000
    H46      H        0.72890    0.43800    0.22270    1.000
    H47      H        0.83040    0.54030    0.21090    1.000
    H48      H        0.72360    0.67390    0.34490    1.000
    H49      H        0.89490    0.65570    0.18710    1.000
    H50      H        0.98810    0.76650    0.17760    1.000
    H51      H        0.94360    0.83730    0.34360    1.000
    H52      H        0.84950    0.73250    0.35770    1.000
    H53      H        0.52330    0.75750    0.35900    1.000
    H54      H        0.59960    0.76060    0.39570    1.000
    H55      H        0.88850    0.03500    0.89970    1.000
    H56      H        0.78550    0.08220    0.96260    1.000
    H57      H        0.75880    0.28320    0.85430    1.000
    H58      H        0.86030    0.22650    0.79200    1.000
    H59      H        0.70420    0.15290    0.02970    1.000
    H60      H        0.59190    0.20430    0.08330    1.000
    H61      H        0.50160    0.30170    0.04270    1.000
    H62      H        0.63490    0.29440    0.88660    1.000
    H63      H        0.38220    0.54200    0.78990    1.000
    H64      H        0.27110    0.56200    0.72270    1.000
    H65      H        0.16960    0.45970    0.71090    1.000
    H66      H        0.27640    0.32610    0.84490    1.000
    H67      H        0.10510    0.34430    0.68710    1.000
    H68      H        0.01190    0.23350    0.67760    1.000
    H69      H        0.05640    0.16270    0.84360    1.000
    H70      H        0.15050    0.26750    0.85770    1.000
    H71      H        0.47670    0.24250    0.85900    1.000
    H72      H        0.40040    0.23940    0.89570    1.000
    H73      H        0.03500    0.88850    0.10030    1.000
    H74      H        0.08220    0.78550    0.03740    1.000
    H75      H        0.28320    0.75880    0.14570    1.000
    H76      H        0.22650    0.86030    0.20800    1.000
    H77      H        0.15290    0.70420    0.97030    1.000
    H78      H        0.20430    0.59190    0.91670    1.000
    H79      H        0.30170    0.50160    0.95730    1.000
    H80      H        0.29440    0.63490    0.11340    1.000
    H81      H        0.54200    0.38220    0.21010    1.000
    H82      H        0.56200    0.27110    0.27730    1.000
    H83      H        0.45970    0.16960    0.28910    1.000
    H84      H        0.32610    0.27640    0.15510    1.000
    H85      H        0.34430    0.10510    0.31290    1.000
    H86      H        0.23350    0.01190    0.32240    1.000
    H87      H        0.16270    0.05640    0.15640    1.000
    H88      H        0.26750    0.15050    0.14230    1.000
    H89      H        0.24250    0.47670    0.14100    1.000
    H90      H        0.23940    0.40040    0.10430    1.000
    H91      H        0.96500    0.11150    0.60030    1.000
    H92      H        0.91780    0.21450    0.53740    1.000
    H93      H        0.71680    0.24120    0.64570    1.000
    H94      H        0.77350    0.13970    0.70800    1.000
    H95      H        0.84710    0.29580    0.47030    1.000
    H96      H        0.79570    0.40810    0.41670    1.000
    H97      H        0.69830    0.49840    0.45730    1.000
    H98      H        0.70560    0.36510    0.61340    1.000
    H99      H        0.45800    0.61780    0.71010    1.000
    H100     H        0.43800    0.72890    0.77730    1.000
    H101     H        0.54030    0.83040    0.78910    1.000
    H102     H        0.67390    0.72360    0.65510    1.000
    H103     H        0.65570    0.89490    0.81290    1.000
    H104     H        0.76650    0.98810    0.82240    1.000
    H105     H        0.83730    0.94360    0.65640    1.000
    H106     H        0.73250    0.84950    0.64230    1.000
    H107     H        0.75750    0.52330    0.64100    1.000
    H108     H        0.76060    0.59960    0.60430    1.000
    H109     H        0.38850    0.46500    0.35030    1.000
    H110     H        0.28550    0.41780    0.28740    1.000
    H111     H        0.25880    0.21680    0.39570    1.000
    H112     H        0.36030    0.27350    0.45800    1.000
    H113     H        0.20420    0.34710    0.22030    1.000
    H114     H        0.09190    0.29570    0.16670    1.000
    H115     H        0.00160    0.19830    0.20730    1.000
    H116     H        0.13490    0.20560    0.36340    1.000
    H117     H        0.88220    0.95800    0.46010    1.000
    H118     H        0.77110    0.93800    0.52730    1.000
    H119     H        0.66960    0.04030    0.53910    1.000
    H120     H        0.77640    0.17390    0.40510    1.000
    H121     H        0.60510    0.15570    0.56290    1.000
    H122     H        0.51190    0.26650    0.57240    1.000
    H123     H        0.55640    0.33730    0.40640    1.000
    H124     H        0.65050    0.23250    0.39230    1.000
    H125     H        0.97670    0.25750    0.39100    1.000
    H126     H        0.90040    0.26060    0.35430    1.000
    H127     H        0.61150    0.53500    0.85030    1.000
    H128     H        0.71450    0.58220    0.78740    1.000
    H129     H        0.74120    0.78320    0.89570    1.000
    H130     H        0.63970    0.72650    0.95800    1.000
    H131     H        0.79580    0.65290    0.72030    1.000
    H132     H        0.90810    0.70430    0.66670    1.000
    H133     H        0.99840    0.80170    0.70730    1.000
    H134     H        0.86510    0.79440    0.86340    1.000
    H135     H        0.11780    0.04200    0.96010    1.000
    H136     H        0.22890    0.06200    0.02730    1.000
    H137     H        0.33040    0.95970    0.03910    1.000
    H138     H        0.22360    0.82610    0.90510    1.000
    H139     H        0.39490    0.84430    0.06290    1.000
    H140     H        0.48810    0.73350    0.07240    1.000
    H141     H        0.44360    0.66270    0.90640    1.000
    H142     H        0.34950    0.76750    0.89230    1.000
    H143     H        0.02330    0.74250    0.89100    1.000
    H144     H        0.09960    0.73940    0.85430    1.000
    C1       C        0.41620    0.35930    0.63900    1.000
    C2       C        0.38760    0.29820    0.67740    1.000
    C3       C        0.31290    0.25420    0.66450    1.000
    C4       C        0.26940    0.28180    0.61350    1.000
    C5       C        0.30370    0.34350    0.57620    1.000
    C6       C        0.28140    0.18260    0.70200    1.000
    C7       C        0.30800    0.16820    0.76170    1.000
    C8       C        0.27670    0.10090    0.79370    1.000
    C9       C        0.21870    0.04670    0.76980    1.000
    C10      C        0.19000    0.06030    0.70960    1.000
    C11      C        0.22290    0.12700    0.67670    1.000
    C12      C        0.12780    0.00400    0.68070    1.000
    C13      C        0.07670    0.90880    0.61790    1.000
    C14      C        0.06920    0.84000    0.57450    1.000
    C15      C        0.99770    0.83910    0.53730    1.000
    C16      C        0.98660    0.77320    0.49640    1.000
    C17      C        0.04650    0.71120    0.49040    1.000
    C18      C        0.11560    0.71070    0.52830    1.000
    C19      C        0.12650    0.77620    0.56980    1.000
    C20      C        0.18280    0.64300    0.52270    1.000
    C21      C        0.19300    0.59760    0.46930    1.000
    C22      C        0.25980    0.54050    0.46430    1.000
    C23      C        0.30090    0.56710    0.56120    1.000
    C24      C        0.23840    0.62410    0.57010    1.000
    C25      C        0.58380    0.64070    0.13900    1.000
    C26      C        0.61240    0.70180    0.17740    1.000
    C27      C        0.68710    0.74580    0.16450    1.000
    C28      C        0.73060    0.71820    0.11350    1.000
    C29      C        0.69630    0.65650    0.07620    1.000
    C30      C        0.71860    0.81740    0.20200    1.000
    C31      C        0.69200    0.83180    0.26170    1.000
    C32      C        0.72330    0.89910    0.29370    1.000
    C33      C        0.78130    0.95330    0.26980    1.000
    C34      C        0.81000    0.93970    0.20960    1.000
    C35      C        0.77710    0.87300    0.17670    1.000
    C36      C        0.87220    0.99600    0.18070    1.000
    C37      C        0.92330    0.09120    0.11790    1.000
    C38      C        0.93080    0.16000    0.07450    1.000
    C39      C        0.00230    0.16090    0.03730    1.000
    C40      C        0.01340    0.22680    0.99640    1.000
    C41      C        0.95350    0.28880    0.99040    1.000
    C42      C        0.88440    0.28930    0.02830    1.000
    C43      C        0.87350    0.22380    0.06980    1.000
    C44      C        0.81720    0.35700    0.02270    1.000
    C45      C        0.80700    0.40240    0.96930    1.000
    C46      C        0.74020    0.45950    0.96430    1.000
    C47      C        0.69910    0.43290    0.06120    1.000
    C48      C        0.76160    0.37590    0.07010    1.000
    C49      C        0.14070    0.91620    0.38900    1.000
    C50      C        0.20180    0.88760    0.42740    1.000
    C51      C        0.24580    0.81290    0.41450    1.000
    C52      C        0.21820    0.76940    0.36350    1.000
    C53      C        0.15650    0.80370    0.32620    1.000
    C54      C        0.31740    0.78140    0.45200    1.000
    C55      C        0.33180    0.80800    0.51170    1.000
    C56      C        0.39910    0.77670    0.54370    1.000
    C57      C        0.45330    0.71870    0.51980    1.000
    C58      C        0.43970    0.69000    0.45960    1.000
    C59      C        0.37300    0.72290    0.42670    1.000
    C60      C        0.49600    0.62780    0.43070    1.000
    C61      C        0.59120    0.57670    0.36790    1.000
    C62      C        0.66000    0.56920    0.32450    1.000
    C63      C        0.66090    0.49770    0.28730    1.000
    C64      C        0.72680    0.48660    0.24640    1.000
    C65      C        0.78880    0.54650    0.24040    1.000
    C66      C        0.78930    0.61560    0.27830    1.000
    C67      C        0.72380    0.62650    0.31980    1.000
    C68      C        0.85700    0.68280    0.27270    1.000
    C69      C        0.90240    0.69300    0.21930    1.000
    C70      C        0.95950    0.75980    0.21430    1.000
    C71      C        0.93290    0.80090    0.31120    1.000
    C72      C        0.87590    0.73840    0.32010    1.000
    C73      C        0.85930    0.08380    0.88900    1.000
    C74      C        0.79820    0.11240    0.92740    1.000
    C75      C        0.75420    0.18710    0.91450    1.000
    C76      C        0.78180    0.23060    0.86350    1.000
    C77      C        0.84350    0.19630    0.82620    1.000
    C78      C        0.68260    0.21860    0.95200    1.000
    C79      C        0.66820    0.19200    0.01170    1.000
    C80      C        0.60090    0.22330    0.04370    1.000
    C81      C        0.54670    0.28130    0.01980    1.000
    C82      C        0.56030    0.31000    0.95960    1.000
    C83      C        0.62700    0.27710    0.92670    1.000
    C84      C        0.50400    0.37220    0.93070    1.000
    C85      C        0.40880    0.42330    0.86790    1.000
    C86      C        0.34000    0.43080    0.82450    1.000
    C87      C        0.33910    0.50230    0.78730    1.000
    C88      C        0.27320    0.51340    0.74640    1.000
    C89      C        0.21120    0.45350    0.74040    1.000
    C90      C        0.21070    0.38440    0.77830    1.000
    C91      C        0.27620    0.37350    0.81980    1.000
    C92      C        0.14300    0.31720    0.77270    1.000
    C93      C        0.09760    0.30700    0.71930    1.000
    C94      C        0.04050    0.24020    0.71430    1.000
    C95      C        0.06710    0.19910    0.81120    1.000
    C96      C        0.12410    0.26160    0.82010    1.000
    C97      C        0.08380    0.85930    0.11100    1.000
    C98      C        0.11240    0.79820    0.07260    1.000
    C99      C        0.18710    0.75420    0.08550    1.000
    C100     C        0.23060    0.78180    0.13650    1.000
    C101     C        0.19630    0.84350    0.17380    1.000
    C102     C        0.21860    0.68260    0.04800    1.000
    C103     C        0.19200    0.66820    0.98830    1.000
    C104     C        0.22330    0.60090    0.95630    1.000
    C105     C        0.28130    0.54670    0.98020    1.000
    C106     C        0.31000    0.56030    0.04040    1.000
    C107     C        0.27710    0.62700    0.07330    1.000
    C108     C        0.37220    0.50400    0.06930    1.000
    C109     C        0.42330    0.40880    0.13210    1.000
    C110     C        0.43080    0.34000    0.17550    1.000
    C111     C        0.50230    0.33910    0.21270    1.000
    C112     C        0.51340    0.27320    0.25360    1.000
    C113     C        0.45350    0.21120    0.25960    1.000
    C114     C        0.38440    0.21070    0.22170    1.000
    C115     C        0.37350    0.27620    0.18020    1.000
    C116     C        0.31720    0.14300    0.22730    1.000
    C117     C        0.30700    0.09760    0.28070    1.000
    C118     C        0.24020    0.04050    0.28570    1.000
    C119     C        0.19910    0.06710    0.18880    1.000
    C120     C        0.26160    0.12410    0.17990    1.000
    C121     C        0.91620    0.14070    0.61100    1.000
    C122     C        0.88760    0.20180    0.57260    1.000
    C123     C        0.81290    0.24580    0.58550    1.000
    C124     C        0.76940    0.21820    0.63650    1.000
    C125     C        0.80370    0.15650    0.67380    1.000
    C126     C        0.78140    0.31740    0.54800    1.000
    C127     C        0.80800    0.33180    0.48830    1.000
    C128     C        0.77670    0.39910    0.45630    1.000
    C129     C        0.71870    0.45330    0.48020    1.000
    C130     C        0.69000    0.43970    0.54040    1.000
    C131     C        0.72290    0.37300    0.57330    1.000
    C132     C        0.62780    0.49600    0.56930    1.000
    C133     C        0.57670    0.59120    0.63210    1.000
    C134     C        0.56920    0.66000    0.67550    1.000
    C135     C        0.49770    0.66090    0.71270    1.000
    C136     C        0.48660    0.72680    0.75360    1.000
    C137     C        0.54650    0.78880    0.75960    1.000
    C138     C        0.61560    0.78930    0.72170    1.000
    C139     C        0.62650    0.72380    0.68020    1.000
    C140     C        0.68280    0.85700    0.72730    1.000
    C141     C        0.69300    0.90240    0.78070    1.000
    C142     C        0.75980    0.95950    0.78570    1.000
    C143     C        0.80090    0.93290    0.68880    1.000
    C144     C        0.73840    0.87590    0.67990    1.000
    C145     C        0.35930    0.41620    0.36100    1.000
    C146     C        0.29820    0.38760    0.32260    1.000
    C147     C        0.25420    0.31290    0.33550    1.000
    C148     C        0.28180    0.26940    0.38650    1.000
    C149     C        0.34350    0.30370    0.42380    1.000
    C150     C        0.18260    0.28140    0.29800    1.000
    C151     C        0.16820    0.30800    0.23830    1.000
    C152     C        0.10090    0.27670    0.20630    1.000
    C153     C        0.04670    0.21870    0.23020    1.000
    C154     C        0.06030    0.19000    0.29040    1.000
    C155     C        0.12700    0.22290    0.32330    1.000
    C156     C        0.00400    0.12780    0.31930    1.000
    C157     C        0.90880    0.07670    0.38210    1.000
    C158     C        0.84000    0.06920    0.42550    1.000
    C159     C        0.83910    0.99770    0.46270    1.000
    C160     C        0.77320    0.98660    0.50360    1.000
    C161     C        0.71120    0.04650    0.50960    1.000
    C162     C        0.71070    0.11560    0.47170    1.000
    C163     C        0.77620    0.12650    0.43020    1.000
    C164     C        0.64300    0.18280    0.47730    1.000
    C165     C        0.59760    0.19300    0.53070    1.000
    C166     C        0.54050    0.25980    0.53570    1.000
    C167     C        0.56710    0.30090    0.43880    1.000
    C168     C        0.62410    0.23840    0.42990    1.000
    C169     C        0.64070    0.58380    0.86100    1.000
    C170     C        0.70180    0.61240    0.82260    1.000
    C171     C        0.74580    0.68710    0.83550    1.000
    C172     C        0.71820    0.73060    0.88650    1.000
    C173     C        0.65650    0.69630    0.92380    1.000
    C174     C        0.81740    0.71860    0.79800    1.000
    C175     C        0.83180    0.69200    0.73830    1.000
    C176     C        0.89910    0.72330    0.70630    1.000
    C177     C        0.95330    0.78130    0.73020    1.000
    C178     C        0.93970    0.81000    0.79040    1.000
    C179     C        0.87300    0.77710    0.82330    1.000
    C180     C        0.99600    0.87220    0.81930    1.000
    C181     C        0.09120    0.92330    0.88210    1.000
    C182     C        0.16000    0.93080    0.92550    1.000
    C183     C        0.16090    0.00230    0.96270    1.000
    C184     C        0.22680    0.01340    0.00360    1.000
    C185     C        0.28880    0.95350    0.00960    1.000
    C186     C        0.28930    0.88440    0.97170    1.000
    C187     C        0.22380    0.87350    0.93020    1.000
    C188     C        0.35700    0.81720    0.97730    1.000
    C189     C        0.40240    0.80700    0.03070    1.000
    C190     C        0.45950    0.74020    0.03570    1.000
    C191     C        0.43290    0.69910    0.93880    1.000
    C192     C        0.37590    0.76160    0.92990    1.000
    N1       N        0.37810    0.37960    0.58710    1.000
    N2       N        0.04670    0.00560    0.68540    1.000
    N3       N        0.01370    0.94480    0.64570    1.000
    N4       N        0.15040    0.94470    0.63890    1.000
    N5       N        0.23170    0.92810    0.61730    1.000
    N6       N        0.31430    0.52460    0.50890    1.000
    N7       N        0.62190    0.62040    0.08710    1.000
    N8       N        0.95330    0.99440    0.18540    1.000
    N9       N        0.98630    0.05520    0.14570    1.000
    N10      N        0.84960    0.05530    0.13890    1.000
    N11      N        0.76830    0.07190    0.11730    1.000
    N12      N        0.68570    0.47540    0.00890    1.000
    N13      N        0.12040    0.87810    0.33710    1.000
    N14      N        0.49440    0.54670    0.43540    1.000
    N15      N        0.55520    0.51370    0.39570    1.000
    N16      N        0.55530    0.65040    0.38890    1.000
    N17      N        0.57190    0.73170    0.36730    1.000
    N18      N        0.97540    0.81430    0.25890    1.000
    N19      N        0.87960    0.12190    0.83710    1.000
    N20      N        0.50560    0.45330    0.93540    1.000
    N21      N        0.44480    0.48630    0.89570    1.000
    N22      N        0.44470    0.34960    0.88890    1.000
    N23      N        0.42810    0.26830    0.86730    1.000
    N24      N        0.02460    0.18570    0.75890    1.000
    N25      N        0.12190    0.87960    0.16290    1.000
    N26      N        0.45330    0.50560    0.06460    1.000
    N27      N        0.48630    0.44480    0.10430    1.000
    N28      N        0.34960    0.44470    0.11110    1.000
    N29      N        0.26830    0.42810    0.13270    1.000
    N30      N        0.18570    0.02460    0.24110    1.000
    N31      N        0.87810    0.12040    0.66290    1.000
    N32      N        0.54670    0.49440    0.56460    1.000
    N33      N        0.51370    0.55520    0.60430    1.000
    N34      N        0.65040    0.55530    0.61110    1.000
    N35      N        0.73170    0.57190    0.63270    1.000
    N36      N        0.81430    0.97540    0.74110    1.000
    N37      N        0.37960    0.37810    0.41290    1.000
    N38      N        0.00560    0.04670    0.31460    1.000
    N39      N        0.94480    0.01370    0.35430    1.000
    N40      N        0.94470    0.15040    0.36110    1.000
    N41      N        0.92810    0.23170    0.38270    1.000
    N42      N        0.52460    0.31430    0.49110    1.000
    N43      N        0.62040    0.62190    0.91290    1.000
    N44      N        0.99440    0.95330    0.81460    1.000
    N45      N        0.05520    0.98630    0.85430    1.000
    N46      N        0.05530    0.84960    0.86110    1.000
    N47      N        0.07190    0.76830    0.88270    1.000
    N48      N        0.47540    0.68570    0.99110    1.000
    Cl1      Cl       0.87948    0.87948    0.00000    1.000
    O1       O        0.82380    0.88600    0.95480    1.000
    O2       O        0.94540    0.86550    0.96800    1.000
    O3       O        0.88600    0.82380    0.04520    1.000
    O4       O        0.86550    0.94540    0.03200    1.000
    Cl2      Cl       0.26930    0.26930    0.00000    1.000
    O5       O        0.22940    0.24640    0.95130    1.000
    O6       O        0.21380    0.33000    0.01600    1.000
    O7       O        0.24640    0.22940    0.04870    1.000
    O8       O        0.33000    0.21380    0.98400    1.000
    Cl3      Cl       0.12052    0.12052    0.50000    1.000
    O9       O        0.17620    0.11400    0.45480    1.000
    O10      O        0.05460    0.13450    0.46800    1.000
    O11      O        0.11400    0.17620    0.54520    1.000
    O12      O        0.13450    0.05460    0.53200    1.000
    Cl4      Cl       0.73070    0.73070    0.50000    1.000
    O13      O        0.77060    0.75360    0.45130    1.000
    O14      O        0.78620    0.67000    0.51600    1.000
    O15      O        0.75360    0.77060    0.54870    1.000
    O16      O        0.67000    0.78620    0.48400    1.000
    Cl5      Cl       0.62052    0.37948    0.75000    1.000
    O17      O        0.61400    0.32380    0.70480    1.000
    O18      O        0.63450    0.44540    0.71800    1.000
    O19      O        0.67620    0.38600    0.79520    1.000
    O20      O        0.55460    0.36550    0.78200    1.000
    Cl6      Cl       0.23070    0.76930    0.75000    1.000
    O21      O        0.25360    0.72940    0.70130    1.000
    O22      O        0.17000    0.71380    0.76600    1.000
    O23      O        0.27060    0.74640    0.79870    1.000
    O24      O        0.28620    0.83000    0.73400    1.000
    Cl7      Cl       0.37948    0.62052    0.25000    1.000
    O25      O        0.38600    0.67620    0.20480    1.000
    O26      O        0.36550    0.55460    0.21800    1.000
    O27      O        0.32380    0.61400    0.29520    1.000
    O28      O        0.44540    0.63450    0.28200    1.000
    Cl8      Cl       0.76930    0.23070    0.25000    1.000
    O29      O        0.74640    0.27060    0.20130    1.000
    O30      O        0.83000    0.28620    0.26600    1.000
    O31      O        0.72940    0.25360    0.29870    1.000
    O32      O        0.71380    0.17000    0.23400    1.000
