# CIF file generated by openbabel 3.1.0, see https://openbabel.org
data_I
_chemical_name_common 'EMIGIR_charged'
_cell_length_a 22.5629
_cell_length_b 22.6617
_cell_length_c 33.7015
_cell_angle_alpha 90
_cell_angle_beta 90
_cell_angle_gamma 90
_space_group_name_H-M_alt 'P 1'
_space_group_name_Hall 'P 1'
loop_
    _symmetry_equiv_pos_as_xyz
    x,y,z
loop_
    _atom_site_label
    _atom_site_type_symbol
    _atom_site_fract_x
    _atom_site_fract_y
    _atom_site_fract_z
    _atom_site_occupancy
    In1      In       0.30705    0.58883    0.75875    1.000
    In2      In       0.23332    0.67693    0.83822    1.000
    In3      In       0.31586    0.51842    0.85968    1.000
    In4      In       0.16420    0.52342    0.79383    1.000
    In5      In       0.15416    0.74394    0.92468    1.000
    In6      In       0.23413    0.60556    0.95003    1.000
    In7      In       0.08024    0.61008    0.88431    1.000
    In8      In       0.30703    0.45843    0.96269    1.000
    In9      In       0.16287    0.45365    0.90667    1.000
    In10     In       0.02785    0.46374    0.84427    1.000
    In11     In       0.69295    0.91117    0.25875    1.000
    In12     In       0.76668    0.82307    0.33822    1.000
    In13     In       0.68414    0.98158    0.35968    1.000
    In14     In       0.83580    0.97658    0.29383    1.000
    In15     In       0.84584    0.75606    0.42468    1.000
    In16     In       0.76587    0.89444    0.45003    1.000
    In17     In       0.91976    0.88992    0.38431    1.000
    In18     In       0.69297    0.04157    0.46269    1.000
    In19     In       0.83713    0.04635    0.40667    1.000
    In20     In       0.97215    0.03626    0.34427    1.000
    In21     In       0.80705    0.41117    0.74125    1.000
    In22     In       0.73332    0.32307    0.66178    1.000
    In23     In       0.81586    0.48158    0.64032    1.000
    In24     In       0.66420    0.47658    0.70617    1.000
    In25     In       0.65416    0.25606    0.57532    1.000
    In26     In       0.73413    0.39444    0.54997    1.000
    In27     In       0.58024    0.38992    0.61569    1.000
    In28     In       0.80703    0.54157    0.53731    1.000
    In29     In       0.66287    0.54635    0.59333    1.000
    In30     In       0.52785    0.53626    0.65573    1.000
    In31     In       0.19295    0.08883    0.24125    1.000
    In32     In       0.26668    0.17693    0.16178    1.000
    In33     In       0.18414    0.01842    0.14032    1.000
    In34     In       0.33580    0.02342    0.20617    1.000
    In35     In       0.34584    0.24394    0.07532    1.000
    In36     In       0.26587    0.10556    0.04997    1.000
    In37     In       0.41976    0.11008    0.11569    1.000
    In38     In       0.19297    0.95843    0.03731    1.000
    In39     In       0.33713    0.95365    0.09333    1.000
    In40     In       0.47215    0.96374    0.15573    1.000
    H1       H        0.42400    0.53430    0.71890    1.000
    H2       H        0.34220    0.66940    0.67730    1.000
    H3       H        0.20620    0.83750    0.98810    1.000
    H4       H        0.05500    0.85900    0.93360    1.000
    H5       H        0.04010    0.96030    0.01060    1.000
    H6       H        0.02980    0.97220    0.96430    1.000
    H7       H        0.08540    0.00130    0.98650    1.000
    H8       H        0.57600    0.96570    0.21890    1.000
    H9       H        0.65780    0.83060    0.17730    1.000
    H10      H        0.79380    0.66250    0.48810    1.000
    H11      H        0.94500    0.64100    0.43360    1.000
    H12      H        0.95990    0.53970    0.51060    1.000
    H13      H        0.97020    0.52780    0.46430    1.000
    H14      H        0.91460    0.49870    0.48650    1.000
    H15      H        0.92400    0.46570    0.78110    1.000
    H16      H        0.84220    0.33060    0.82270    1.000
    H17      H        0.70620    0.16250    0.51190    1.000
    H18      H        0.55500    0.14100    0.56640    1.000
    H19      H        0.54010    0.03970    0.48940    1.000
    H20      H        0.52980    0.02780    0.53570    1.000
    H21      H        0.58540    0.99870    0.51350    1.000
    H22      H        0.07600    0.03430    0.28110    1.000
    H23      H        0.15780    0.16940    0.32270    1.000
    H24      H        0.29380    0.33750    0.01190    1.000
    H25      H        0.44500    0.35900    0.06640    1.000
    H26      H        0.45990    0.46030    0.98940    1.000
    H27      H        0.47020    0.47220    0.03570    1.000
    H28      H        0.41460    0.50130    0.01350    1.000
    C1       C        0.41400    0.56670    0.70230    1.000
    C2       C        0.37020    0.63850    0.68090    1.000
    C3       C        0.41980    0.63040    0.65800    1.000
    C4       C        0.16910    0.85300    0.97970    1.000
    C5       C        0.08840    0.86460    0.95040    1.000
    C6       C        0.09780    0.91150    0.97480    1.000
    C7       C        0.05980    0.96640    0.98500    1.000
    C8       C        0.58600    0.93330    0.20230    1.000
    C9       C        0.62980    0.86150    0.18090    1.000
    C10      C        0.58020    0.86960    0.15800    1.000
    C11      C        0.83090    0.64700    0.47970    1.000
    C12      C        0.91160    0.63540    0.45040    1.000
    C13      C        0.90220    0.58850    0.47480    1.000
    C14      C        0.94020    0.53360    0.48500    1.000
    C15      C        0.91400    0.43330    0.79770    1.000
    C16      C        0.87020    0.36150    0.81910    1.000
    C17      C        0.91980    0.36960    0.84200    1.000
    C18      C        0.66910    0.14700    0.52030    1.000
    C19      C        0.58840    0.13540    0.54960    1.000
    C20      C        0.59780    0.08850    0.52520    1.000
    C21      C        0.55980    0.03360    0.51500    1.000
    C22      C        0.08600    0.06670    0.29770    1.000
    C23      C        0.12980    0.13850    0.31910    1.000
    C24      C        0.08020    0.13040    0.34200    1.000
    C25      C        0.33090    0.35300    0.02030    1.000
    C26      C        0.41160    0.36460    0.04960    1.000
    C27      C        0.40220    0.41150    0.02520    1.000
    C28      C        0.44020    0.46640    0.01500    1.000
    S1       S        0.29080    0.68990    0.77880    1.000
    S2       S        0.37260    0.52950    0.79986    1.000
    S3       S        0.22150    0.53610    0.73399    1.000
    S4       S        0.20970    0.77200    0.86590    1.000
    S5       S        0.29250    0.61800    0.88721    1.000
    S6       S        0.13910    0.62280    0.82192    1.000
    S7       S        0.37460    0.46250    0.90647    1.000
    S8       S        0.22160    0.46530    0.84424    1.000
    S9       S        0.07490    0.46920    0.77948    1.000
    S10      S        0.21320    0.70110    0.97755    1.000
    S11      S        0.05610    0.70410    0.91310    1.000
    S12      S        0.29260    0.55120    0.99715    1.000
    S13      S        0.13880    0.55310    0.93434    1.000
    S14      S        0.98990    0.55800    0.86841    1.000
    S15      S        0.22010    0.39710    0.95350    1.000
    S16      S        0.07210    0.40030    0.89367    1.000
    S17      S        0.70920    0.81010    0.27880    1.000
    S18      S        0.62740    0.97050    0.29986    1.000
    S19      S        0.77850    0.96390    0.23399    1.000
    S20      S        0.79030    0.72800    0.36590    1.000
    S21      S        0.70750    0.88200    0.38721    1.000
    S22      S        0.86090    0.87720    0.32192    1.000
    S23      S        0.62540    0.03750    0.40647    1.000
    S24      S        0.77840    0.03470    0.34424    1.000
    S25      S        0.92510    0.03080    0.27948    1.000
    S26      S        0.78680    0.79890    0.47755    1.000
    S27      S        0.94390    0.79590    0.41310    1.000
    S28      S        0.70740    0.94880    0.49715    1.000
    S29      S        0.86120    0.94690    0.43434    1.000
    S30      S        0.01010    0.94200    0.36841    1.000
    S31      S        0.77990    0.10290    0.45350    1.000
    S32      S        0.92790    0.09970    0.39367    1.000
    S33      S        0.79080    0.31010    0.72120    1.000
    S34      S        0.87260    0.47050    0.70014    1.000
    S35      S        0.72150    0.46390    0.76601    1.000
    S36      S        0.70970    0.22800    0.63410    1.000
    S37      S        0.79250    0.38200    0.61279    1.000
    S38      S        0.63910    0.37720    0.67808    1.000
    S39      S        0.87460    0.53750    0.59353    1.000
    S40      S        0.72160    0.53470    0.65576    1.000
    S41      S        0.57490    0.53080    0.72052    1.000
    S42      S        0.71320    0.29890    0.52245    1.000
    S43      S        0.55610    0.29590    0.58690    1.000
    S44      S        0.79260    0.44880    0.50285    1.000
    S45      S        0.63880    0.44690    0.56566    1.000
    S46      S        0.48990    0.44200    0.63159    1.000
    S47      S        0.72010    0.60290    0.54650    1.000
    S48      S        0.57210    0.59970    0.60633    1.000
    S49      S        0.20920    0.18990    0.22120    1.000
    S50      S        0.12740    0.02950    0.20014    1.000
    S51      S        0.27850    0.03610    0.26601    1.000
    S52      S        0.29030    0.27200    0.13410    1.000
    S53      S        0.20750    0.11800    0.11279    1.000
    S54      S        0.36090    0.12280    0.17808    1.000
    S55      S        0.12540    0.96250    0.09353    1.000
    S56      S        0.27840    0.96530    0.15576    1.000
    S57      S        0.42510    0.96920    0.22052    1.000
    S58      S        0.28680    0.20110    0.02245    1.000
    S59      S        0.44390    0.20410    0.08690    1.000
    S60      S        0.20740    0.05120    0.00285    1.000
    S61      S        0.36120    0.05310    0.06566    1.000
    S62      S        0.51010    0.05800    0.13159    1.000
    S63      S        0.27990    0.89710    0.04650    1.000
    S64      S        0.42790    0.90030    0.10633    1.000
    N1       N        0.36680    0.59860    0.70790    1.000
    N2       N        0.44630    0.58240    0.67240    1.000
    N3       N        0.13580    0.82660    0.95410    1.000
    N4       N        0.14770    0.90310    0.99330    1.000
    N5       N        0.63320    0.90140    0.20790    1.000
    N6       N        0.55370    0.91760    0.17240    1.000
    N7       N        0.86420    0.67340    0.45410    1.000
    N8       N        0.85230    0.59690    0.49330    1.000
    N9       N        0.86680    0.40140    0.79210    1.000
    N10      N        0.94630    0.41760    0.82760    1.000
    N11      N        0.63580    0.17340    0.54590    1.000
    N12      N        0.64770    0.09690    0.50670    1.000
    N13      N        0.13320    0.09860    0.29210    1.000
    N14      N        0.05370    0.08240    0.32760    1.000
    N15      N        0.36420    0.32660    0.04590    1.000
    N16      N        0.35230    0.40310    0.00670    1.000
    In41     In       0.69295    0.41117    0.24125    1.000
    In42     In       0.76668    0.32307    0.16178    1.000
    In43     In       0.68414    0.48158    0.14032    1.000
    In44     In       0.83580    0.47658    0.20617    1.000
    In45     In       0.84584    0.25606    0.07532    1.000
    In46     In       0.76587    0.39444    0.04997    1.000
    In47     In       0.91976    0.38992    0.11569    1.000
    In48     In       0.69297    0.54157    0.03731    1.000
    In49     In       0.83713    0.54635    0.09333    1.000
    In50     In       0.97215    0.53626    0.15573    1.000
    In51     In       0.30705    0.08883    0.74125    1.000
    In52     In       0.23332    0.17693    0.66178    1.000
    In53     In       0.31586    0.01842    0.64032    1.000
    In54     In       0.16420    0.02342    0.70617    1.000
    In55     In       0.15416    0.24394    0.57532    1.000
    In56     In       0.23413    0.10556    0.54997    1.000
    In57     In       0.08024    0.11008    0.61569    1.000
    In58     In       0.30703    0.95843    0.53731    1.000
    In59     In       0.16287    0.95365    0.59333    1.000
    In60     In       0.02785    0.96374    0.65573    1.000
    In61     In       0.19295    0.58883    0.25875    1.000
    In62     In       0.26668    0.67693    0.33822    1.000
    In63     In       0.18414    0.51842    0.35968    1.000
    In64     In       0.33580    0.52342    0.29383    1.000
    In65     In       0.34584    0.74394    0.42468    1.000
    In66     In       0.26587    0.60556    0.45003    1.000
    In67     In       0.41976    0.61008    0.38431    1.000
    In68     In       0.19297    0.45843    0.46269    1.000
    In69     In       0.33713    0.45365    0.40667    1.000
    In70     In       0.47215    0.46374    0.34427    1.000
    In71     In       0.80705    0.91117    0.75875    1.000
    In72     In       0.73332    0.82307    0.83822    1.000
    In73     In       0.81586    0.98158    0.85968    1.000
    In74     In       0.66420    0.97658    0.79383    1.000
    In75     In       0.65416    0.75606    0.92468    1.000
    In76     In       0.73413    0.89444    0.95003    1.000
    In77     In       0.58024    0.88992    0.88431    1.000
    In78     In       0.80703    0.04157    0.96269    1.000
    In79     In       0.66287    0.04635    0.90667    1.000
    In80     In       0.52785    0.03626    0.84427    1.000
    H29      H        0.57600    0.46570    0.28110    1.000
    H30      H        0.65780    0.33060    0.32270    1.000
    H31      H        0.79380    0.16250    0.01190    1.000
    H32      H        0.94500    0.14100    0.06640    1.000
    H33      H        0.95990    0.03970    0.98940    1.000
    H34      H        0.97020    0.02780    0.03570    1.000
    H35      H        0.91460    0.99870    0.01350    1.000
    H36      H        0.42400    0.03430    0.78110    1.000
    H37      H        0.34220    0.16940    0.82270    1.000
    H38      H        0.20620    0.33750    0.51190    1.000
    H39      H        0.05500    0.35900    0.56640    1.000
    H40      H        0.04010    0.46030    0.48940    1.000
    H41      H        0.02980    0.47220    0.53570    1.000
    H42      H        0.08540    0.50130    0.51350    1.000
    H43      H        0.07600    0.53430    0.21890    1.000
    H44      H        0.15780    0.66940    0.17730    1.000
    H45      H        0.29380    0.83750    0.48810    1.000
    H46      H        0.44500    0.85900    0.43360    1.000
    H47      H        0.45990    0.96030    0.51060    1.000
    H48      H        0.47020    0.97220    0.46430    1.000
    H49      H        0.41460    0.00130    0.48650    1.000
    H50      H        0.92400    0.96570    0.71890    1.000
    H51      H        0.84220    0.83060    0.67730    1.000
    H52      H        0.70620    0.66250    0.98810    1.000
    H53      H        0.55500    0.64100    0.93360    1.000
    H54      H        0.54010    0.53970    0.01060    1.000
    H55      H        0.52980    0.52780    0.96430    1.000
    H56      H        0.58540    0.49870    0.98650    1.000
    C29      C        0.58600    0.43330    0.29770    1.000
    C30      C        0.62980    0.36150    0.31910    1.000
    C31      C        0.58020    0.36960    0.34200    1.000
    C32      C        0.83090    0.14700    0.02030    1.000
    C33      C        0.91160    0.13540    0.04960    1.000
    C34      C        0.90220    0.08850    0.02520    1.000
    C35      C        0.94020    0.03360    0.01500    1.000
    C36      C        0.41400    0.06670    0.79770    1.000
    C37      C        0.37020    0.13850    0.81910    1.000
    C38      C        0.41980    0.13040    0.84200    1.000
    C39      C        0.16910    0.35300    0.52030    1.000
    C40      C        0.08840    0.36460    0.54960    1.000
    C41      C        0.09780    0.41150    0.52520    1.000
    C42      C        0.05980    0.46640    0.51500    1.000
    C43      C        0.08600    0.56670    0.20230    1.000
    C44      C        0.12980    0.63850    0.18090    1.000
    C45      C        0.08020    0.63040    0.15800    1.000
    C46      C        0.33090    0.85300    0.47970    1.000
    C47      C        0.41160    0.86460    0.45040    1.000
    C48      C        0.40220    0.91150    0.47480    1.000
    C49      C        0.44020    0.96640    0.48500    1.000
    C50      C        0.91400    0.93330    0.70230    1.000
    C51      C        0.87020    0.86150    0.68090    1.000
    C52      C        0.91980    0.86960    0.65800    1.000
    C53      C        0.66910    0.64700    0.97970    1.000
    C54      C        0.58840    0.63540    0.95040    1.000
    C55      C        0.59780    0.58850    0.97480    1.000
    C56      C        0.55980    0.53360    0.98500    1.000
    S65      S        0.70920    0.31010    0.22120    1.000
    S66      S        0.62740    0.47050    0.20014    1.000
    S67      S        0.77850    0.46390    0.26601    1.000
    S68      S        0.79030    0.22800    0.13410    1.000
    S69      S        0.70750    0.38200    0.11279    1.000
    S70      S        0.86090    0.37720    0.17808    1.000
    S71      S        0.62540    0.53750    0.09353    1.000
    S72      S        0.77840    0.53470    0.15576    1.000
    S73      S        0.92510    0.53080    0.22052    1.000
    S74      S        0.78680    0.29890    0.02245    1.000
    S75      S        0.94390    0.29590    0.08690    1.000
    S76      S        0.70740    0.44880    0.00285    1.000
    S77      S        0.86120    0.44690    0.06566    1.000
    S78      S        0.01010    0.44200    0.13159    1.000
    S79      S        0.77990    0.60290    0.04650    1.000
    S80      S        0.92790    0.59970    0.10633    1.000
    S81      S        0.29080    0.18990    0.72120    1.000
    S82      S        0.37260    0.02950    0.70014    1.000
    S83      S        0.22150    0.03610    0.76601    1.000
    S84      S        0.20970    0.27200    0.63410    1.000
    S85      S        0.29250    0.11800    0.61279    1.000
    S86      S        0.13910    0.12280    0.67808    1.000
    S87      S        0.37460    0.96250    0.59353    1.000
    S88      S        0.22160    0.96530    0.65576    1.000
    S89      S        0.07490    0.96920    0.72052    1.000
    S90      S        0.21320    0.20110    0.52245    1.000
    S91      S        0.05610    0.20410    0.58690    1.000
    S92      S        0.29260    0.05120    0.50285    1.000
    S93      S        0.13880    0.05310    0.56566    1.000
    S94      S        0.98990    0.05800    0.63159    1.000
    S95      S        0.22010    0.89710    0.54650    1.000
    S96      S        0.07210    0.90030    0.60633    1.000
    S97      S        0.20920    0.68990    0.27880    1.000
    S98      S        0.12740    0.52950    0.29986    1.000
    S99      S        0.27850    0.53610    0.23399    1.000
    S100     S        0.29030    0.77200    0.36590    1.000
    S101     S        0.20750    0.61800    0.38721    1.000
    S102     S        0.36090    0.62280    0.32192    1.000
    S103     S        0.12540    0.46250    0.40647    1.000
    S104     S        0.27840    0.46530    0.34424    1.000
    S105     S        0.42510    0.46920    0.27948    1.000
    S106     S        0.28680    0.70110    0.47755    1.000
    S107     S        0.44390    0.70410    0.41310    1.000
    S108     S        0.20740    0.55120    0.49715    1.000
    S109     S        0.36120    0.55310    0.43434    1.000
    S110     S        0.51010    0.55800    0.36841    1.000
    S111     S        0.27990    0.39710    0.45350    1.000
    S112     S        0.42790    0.40030    0.39367    1.000
    S113     S        0.79080    0.81010    0.77880    1.000
    S114     S        0.87260    0.97050    0.79986    1.000
    S115     S        0.72150    0.96390    0.73399    1.000
    S116     S        0.70970    0.72800    0.86590    1.000
    S117     S        0.79250    0.88200    0.88721    1.000
    S118     S        0.63910    0.87720    0.82192    1.000
    S119     S        0.87460    0.03750    0.90647    1.000
    S120     S        0.72160    0.03470    0.84424    1.000
    S121     S        0.57490    0.03080    0.77948    1.000
    S122     S        0.71320    0.79890    0.97755    1.000
    S123     S        0.55610    0.79590    0.91310    1.000
    S124     S        0.79260    0.94880    0.99715    1.000
    S125     S        0.63880    0.94690    0.93434    1.000
    S126     S        0.48990    0.94200    0.86841    1.000
    S127     S        0.72010    0.10290    0.95350    1.000
    S128     S        0.57210    0.09970    0.89367    1.000
    N17      N        0.63320    0.40140    0.29210    1.000
    N18      N        0.55370    0.41760    0.32760    1.000
    N19      N        0.86420    0.17340    0.04590    1.000
    N20      N        0.85230    0.09690    0.00670    1.000
    N21      N        0.36680    0.09860    0.79210    1.000
    N22      N        0.44630    0.08240    0.82760    1.000
    N23      N        0.13580    0.32660    0.54590    1.000
    N24      N        0.14770    0.40310    0.50670    1.000
    N25      N        0.13320    0.59860    0.20790    1.000
    N26      N        0.05370    0.58240    0.17240    1.000
    N27      N        0.36420    0.82660    0.45410    1.000
    N28      N        0.35230    0.90310    0.49330    1.000
    N29      N        0.86680    0.90140    0.70790    1.000
    N30      N        0.94630    0.91760    0.67240    1.000
    N31      N        0.63580    0.67340    0.95410    1.000
    N32      N        0.64770    0.59690    0.99330    1.000
