# CIF file generated by openbabel 3.1.0, see https://openbabel.org
data_I
_chemical_name_common 'image0'
_cell_length_a 35.2563
_cell_length_b 15.4625
_cell_length_c 25.051
_cell_angle_alpha 90
_cell_angle_beta 122.794
_cell_angle_gamma 90
_space_group_name_H-M_alt 'P 1'
_space_group_name_Hall 'P 1'
loop_
    _symmetry_equiv_pos_as_xyz
    x,y,z
loop_
    _atom_site_label
    _atom_site_type_symbol
    _atom_site_fract_x
    _atom_site_fract_y
    _atom_site_fract_z
    _atom_site_occupancy
    N1       N        0.34270    0.96820    0.35330    1.000
    C1       C        0.33420    0.94170    0.39670    1.000
    H1       H        0.31060    0.96050    0.40030    1.000
    N2       N        0.36560    0.88350    0.43410    1.000
    N3       N        0.39350    0.87400    0.41380    1.000
    C2       C        0.37930    0.92630    0.36380    1.000
    H2       H        0.39260    0.93250    0.34060    1.000
    C3       C        0.42840    0.81080    0.43480    1.000
    H3       H        0.44150    0.79880    0.47940    1.000
    H4       H        0.45200    0.83350    0.42990    1.000
    C4       C        0.41030    0.72940    0.39770    1.000
    C5       C        0.39960    0.72300    0.33610    1.000
    H5       H        0.40090    0.77340    0.31660    1.000
    C6       C        0.40600    0.65410    0.42330    1.000
    H6       H        0.41340    0.65420    0.46500    1.000
    N4       N        0.25440    0.48170    0.24210    1.000
    C7       C        0.26820    0.40420    0.26590    1.000
    H7       H        0.25070    0.36120    0.26820    1.000
    N5       N        0.31090    0.39790    0.28590    1.000
    N6       N        0.32360    0.47150    0.27450    1.000
    C8       C        0.28860    0.52330    0.24750    1.000
    H8       H        0.28820    0.57970    0.23430    1.000
    C9       C        0.36830    0.49150    0.29100    1.000
    H9       H        0.36870    0.49780    0.25280    1.000
    H10      H        0.38870    0.44500    0.31620    1.000
    C10      C        0.38310    0.57350    0.32800    1.000
    C11      C        0.38730    0.64910    0.30250    1.000
    H11      H        0.38160    0.64900    0.26160    1.000
    C12      C        0.39080    0.57800    0.38820    1.000
    H12      H        0.38570    0.52940    0.40540    1.000
    N7       N        0.26380    0.12400    0.20190    1.000
    C13      C        0.26540    0.20820    0.20790    1.000
    H13      H        0.28270    0.23890    0.24560    1.000
    N8       N        0.23860    0.24160    0.15140    1.000
    N9       N        0.22040    0.17810    0.11070    1.000
    C14      C        0.23590    0.10540    0.14190    1.000
    H14      H        0.22850    0.05020    0.12440    1.000
    C15      C        0.19400    0.18900    0.04320    1.000
    H15      H        0.16980    0.23010    0.03210    1.000
    H16      H        0.18040    0.13460    0.02310    1.000
    C16      C        0.22070    0.22140    0.01850    1.000
    C17      C        0.25000    0.16640    0.01620    1.000
    H17      H        0.25060    0.10870    0.02720    1.000
    C18      C        0.22030    0.30570    0.00250    1.000
    H18      H        0.20080    0.34490    0.00380    1.000
    N10      N        0.35540    0.09210    0.27710    1.000
    C19      C        0.38120    0.16090    0.31210    1.000
    H19      H        0.38420    0.18190    0.34900    1.000
    N11      N        0.40180    0.19350    0.28340    1.000
    N12      N        0.38880    0.14490    0.23080    1.000
    C20      C        0.36010    0.08230    0.22690    1.000
    H20      H        0.34620    0.04020    0.19550    1.000
    C21      C        0.40390    0.14200    0.18800    1.000
    H21      H        0.38650    0.18260    0.15390    1.000
    H22      H        0.39790    0.08430    0.16940    1.000
    C22      C        0.45190    0.16100    0.21800    1.000
    C23      C        0.47660    0.08700    0.23500    1.000
    H23      H        0.46180    0.03410    0.22810    1.000
    C24      C        0.47650    0.23500    0.23400    1.000
    H24      H        0.46140    0.28790    0.22240    1.000
    Cu1      Cu       0.30333    0.04320    0.27651    1.000
    N13      N        0.84270    0.46820    0.35330    1.000
    C25      C        0.83420    0.44170    0.39670    1.000
    H25      H        0.81060    0.46050    0.40030    1.000
    N14      N        0.86560    0.38350    0.43410    1.000
    N15      N        0.89350    0.37400    0.41380    1.000
    C26      C        0.87930    0.42630    0.36380    1.000
    H26      H        0.89260    0.43250    0.34060    1.000
    C27      C        0.92840    0.31080    0.43480    1.000
    H27      H        0.94150    0.29880    0.47940    1.000
    H28      H        0.95200    0.33350    0.42990    1.000
    C28      C        0.91030    0.22940    0.39770    1.000
    C29      C        0.89960    0.22300    0.33610    1.000
    H29      H        0.90090    0.27340    0.31660    1.000
    C30      C        0.90600    0.15410    0.42330    1.000
    H30      H        0.91340    0.15420    0.46500    1.000
    N16      N        0.75440    0.98170    0.24210    1.000
    C31      C        0.76820    0.90420    0.26590    1.000
    H31      H        0.75070    0.86120    0.26820    1.000
    N17      N        0.81090    0.89790    0.28590    1.000
    N18      N        0.82360    0.97150    0.27450    1.000
    C32      C        0.78860    0.02330    0.24750    1.000
    H32      H        0.78820    0.07970    0.23430    1.000
    C33      C        0.86830    0.99150    0.29100    1.000
    H33      H        0.86870    0.99780    0.25280    1.000
    H34      H        0.88870    0.94500    0.31620    1.000
    C34      C        0.88310    0.07350    0.32800    1.000
    C35      C        0.88730    0.14910    0.30250    1.000
    H35      H        0.88160    0.14900    0.26160    1.000
    C36      C        0.89080    0.07800    0.38820    1.000
    H36      H        0.88570    0.02940    0.40540    1.000
    N19      N        0.76380    0.62400    0.20190    1.000
    C37      C        0.76540    0.70820    0.20790    1.000
    H37      H        0.78270    0.73890    0.24560    1.000
    N20      N        0.73860    0.74160    0.15140    1.000
    N21      N        0.72040    0.67810    0.11070    1.000
    C38      C        0.73590    0.60540    0.14190    1.000
    H38      H        0.72850    0.55020    0.12440    1.000
    C39      C        0.69400    0.68900    0.04320    1.000
    H39      H        0.66980    0.73010    0.03210    1.000
    H40      H        0.68040    0.63460    0.02310    1.000
    C40      C        0.72070    0.72140    0.01850    1.000
    C41      C        0.75000    0.66640    0.01620    1.000
    H41      H        0.75060    0.60870    0.02720    1.000
    C42      C        0.72030    0.80570    0.00250    1.000
    H42      H        0.70080    0.84490    0.00380    1.000
    N22      N        0.85540    0.59210    0.27710    1.000
    C43      C        0.88120    0.66090    0.31210    1.000
    H43      H        0.88420    0.68190    0.34900    1.000
    N23      N        0.90180    0.69350    0.28340    1.000
    N24      N        0.88880    0.64490    0.23080    1.000
    C44      C        0.86010    0.58230    0.22690    1.000
    H44      H        0.84620    0.54020    0.19550    1.000
    C45      C        0.90390    0.64200    0.18800    1.000
    H45      H        0.88650    0.68260    0.15390    1.000
    H46      H        0.89790    0.58430    0.16940    1.000
    C46      C        0.95190    0.66100    0.21800    1.000
    C47      C        0.97660    0.58700    0.23500    1.000
    H47      H        0.96180    0.53410    0.22810    1.000
    C48      C        0.97650    0.73500    0.23400    1.000
    H48      H        0.96140    0.78790    0.22240    1.000
    Cu2      Cu       0.80333    0.54320    0.27651    1.000
    N25      N        0.65730    0.96820    0.14670    1.000
    C49      C        0.66580    0.94170    0.10330    1.000
    H49      H        0.68940    0.96050    0.09970    1.000
    N26      N        0.63440    0.88350    0.06590    1.000
    N27      N        0.60650    0.87400    0.08620    1.000
    C50      C        0.62070    0.92630    0.13620    1.000
    H50      H        0.60740    0.93250    0.15940    1.000
    C51      C        0.57160    0.81080    0.06520    1.000
    H51      H        0.55850    0.79880    0.02060    1.000
    H52      H        0.54800    0.83350    0.07010    1.000
    C52      C        0.58970    0.72940    0.10230    1.000
    C53      C        0.60040    0.72300    0.16390    1.000
    H53      H        0.59910    0.77340    0.18340    1.000
    C54      C        0.59400    0.65410    0.07670    1.000
    H54      H        0.58660    0.65420    0.03500    1.000
    N28      N        0.74560    0.48170    0.25790    1.000
    C55      C        0.73180    0.40420    0.23410    1.000
    H55      H        0.74930    0.36120    0.23180    1.000
    N29      N        0.68910    0.39790    0.21410    1.000
    N30      N        0.67640    0.47150    0.22550    1.000
    C56      C        0.71140    0.52330    0.25250    1.000
    H56      H        0.71180    0.57970    0.26570    1.000
    C57      C        0.63170    0.49150    0.20900    1.000
    H57      H        0.63130    0.49780    0.24720    1.000
    H58      H        0.61130    0.44500    0.18380    1.000
    C58      C        0.61690    0.57350    0.17200    1.000
    C59      C        0.61270    0.64910    0.19750    1.000
    H59      H        0.61840    0.64900    0.23840    1.000
    C60      C        0.60920    0.57800    0.11180    1.000
    H60      H        0.61430    0.52940    0.09460    1.000
    N31      N        0.73620    0.12400    0.29810    1.000
    C61      C        0.73460    0.20820    0.29210    1.000
    H61      H        0.71730    0.23890    0.25440    1.000
    N32      N        0.76140    0.24160    0.34860    1.000
    N33      N        0.77960    0.17810    0.38930    1.000
    C62      C        0.76410    0.10540    0.35810    1.000
    H62      H        0.77150    0.05020    0.37560    1.000
    C63      C        0.80600    0.18900    0.45680    1.000
    H63      H        0.83020    0.23010    0.46790    1.000
    H64      H        0.81960    0.13460    0.47690    1.000
    C64      C        0.77930    0.22140    0.48150    1.000
    C65      C        0.75000    0.16640    0.48380    1.000
    H65      H        0.74940    0.10870    0.47280    1.000
    C66      C        0.77970    0.30570    0.49750    1.000
    H66      H        0.79920    0.34490    0.49620    1.000
    N34      N        0.64460    0.09210    0.22290    1.000
    C67      C        0.61880    0.16090    0.18790    1.000
    H67      H        0.61580    0.18190    0.15100    1.000
    N35      N        0.59820    0.19350    0.21660    1.000
    N36      N        0.61120    0.14490    0.26920    1.000
    C68      C        0.63990    0.08230    0.27310    1.000
    H68      H        0.65380    0.04020    0.30450    1.000
    C69      C        0.59610    0.14200    0.31200    1.000
    H69      H        0.61350    0.18260    0.34610    1.000
    H70      H        0.60210    0.08430    0.33060    1.000
    C70      C        0.54810    0.16100    0.28200    1.000
    C71      C        0.52340    0.08700    0.26500    1.000
    H71      H        0.53820    0.03410    0.27190    1.000
    C72      C        0.52350    0.23500    0.26600    1.000
    H72      H        0.53860    0.28790    0.27760    1.000
    Cu3      Cu       0.69667    0.04320    0.22349    1.000
    N37      N        0.15730    0.46820    0.14670    1.000
    C73      C        0.16580    0.44170    0.10330    1.000
    H73      H        0.18940    0.46050    0.09970    1.000
    N38      N        0.13440    0.38350    0.06590    1.000
    N39      N        0.10650    0.37400    0.08620    1.000
    C74      C        0.12070    0.42630    0.13620    1.000
    H74      H        0.10740    0.43250    0.15940    1.000
    C75      C        0.07160    0.31080    0.06520    1.000
    H75      H        0.05850    0.29880    0.02060    1.000
    H76      H        0.04800    0.33350    0.07010    1.000
    C76      C        0.08970    0.22940    0.10230    1.000
    C77      C        0.10040    0.22300    0.16390    1.000
    H77      H        0.09910    0.27340    0.18340    1.000
    C78      C        0.09400    0.15410    0.07670    1.000
    H78      H        0.08660    0.15420    0.03500    1.000
    N40      N        0.24560    0.98170    0.25790    1.000
    C79      C        0.23180    0.90420    0.23410    1.000
    H79      H        0.24930    0.86120    0.23180    1.000
    N41      N        0.18910    0.89790    0.21410    1.000
    N42      N        0.17640    0.97150    0.22550    1.000
    C80      C        0.21140    0.02330    0.25250    1.000
    H80      H        0.21180    0.07970    0.26570    1.000
    C81      C        0.13170    0.99150    0.20900    1.000
    H81      H        0.13130    0.99780    0.24720    1.000
    H82      H        0.11130    0.94500    0.18380    1.000
    C82      C        0.11690    0.07350    0.17200    1.000
    C83      C        0.11270    0.14910    0.19750    1.000
    H83      H        0.11840    0.14900    0.23840    1.000
    C84      C        0.10920    0.07800    0.11180    1.000
    H84      H        0.11430    0.02940    0.09460    1.000
    N43      N        0.23620    0.62400    0.29810    1.000
    C85      C        0.23460    0.70820    0.29210    1.000
    H85      H        0.21730    0.73890    0.25440    1.000
    N44      N        0.26140    0.74160    0.34860    1.000
    N45      N        0.27960    0.67810    0.38930    1.000
    C86      C        0.26410    0.60540    0.35810    1.000
    H86      H        0.27150    0.55020    0.37560    1.000
    C87      C        0.30600    0.68900    0.45680    1.000
    H87      H        0.33020    0.73010    0.46790    1.000
    H88      H        0.31960    0.63460    0.47690    1.000
    C88      C        0.27930    0.72140    0.48150    1.000
    C89      C        0.25000    0.66640    0.48380    1.000
    H89      H        0.24940    0.60870    0.47280    1.000
    C90      C        0.27970    0.80570    0.49750    1.000
    H90      H        0.29920    0.84490    0.49620    1.000
    N46      N        0.14460    0.59210    0.22290    1.000
    C91      C        0.11880    0.66090    0.18790    1.000
    H91      H        0.11580    0.68190    0.15100    1.000
    N47      N        0.09820    0.69350    0.21660    1.000
    N48      N        0.11120    0.64490    0.26920    1.000
    C92      C        0.13990    0.58230    0.27310    1.000
    H92      H        0.15380    0.54020    0.30450    1.000
    C93      C        0.09610    0.64200    0.31200    1.000
    H93      H        0.11350    0.68260    0.34610    1.000
    H94      H        0.10210    0.58430    0.33060    1.000
    C94      C        0.04810    0.66100    0.28200    1.000
    C95      C        0.02340    0.58700    0.26500    1.000
    H95      H        0.03820    0.53410    0.27190    1.000
    C96      C        0.02350    0.73500    0.26600    1.000
    H96      H        0.03860    0.78790    0.27760    1.000
    Cu4      Cu       0.19667    0.54320    0.22349    1.000
    N49      N        0.65730    0.03180    0.64670    1.000
    C97      C        0.66580    0.05830    0.60330    1.000
    H97      H        0.68940    0.03950    0.59970    1.000
    N50      N        0.63440    0.11650    0.56590    1.000
    N51      N        0.60650    0.12600    0.58620    1.000
    C98      C        0.62070    0.07370    0.63620    1.000
    H98      H        0.60740    0.06750    0.65940    1.000
    C99      C        0.57160    0.18920    0.56520    1.000
    H99      H        0.55850    0.20120    0.52060    1.000
    H100     H        0.54800    0.16650    0.57010    1.000
    C100     C        0.58970    0.27060    0.60230    1.000
    C101     C        0.60040    0.27700    0.66390    1.000
    H101     H        0.59910    0.22660    0.68340    1.000
    C102     C        0.59400    0.34590    0.57670    1.000
    H102     H        0.58660    0.34580    0.53500    1.000
    N52      N        0.74560    0.51830    0.75790    1.000
    C103     C        0.73180    0.59580    0.73410    1.000
    H103     H        0.74930    0.63880    0.73180    1.000
    N53      N        0.68910    0.60210    0.71410    1.000
    N54      N        0.67640    0.52850    0.72550    1.000
    C104     C        0.71140    0.47670    0.75250    1.000
    H104     H        0.71180    0.42030    0.76570    1.000
    C105     C        0.63170    0.50850    0.70900    1.000
    H105     H        0.63130    0.50220    0.74720    1.000
    H106     H        0.61130    0.55500    0.68380    1.000
    C106     C        0.61690    0.42650    0.67200    1.000
    C107     C        0.61270    0.35090    0.69750    1.000
    H107     H        0.61840    0.35100    0.73840    1.000
    C108     C        0.60920    0.42200    0.61180    1.000
    H108     H        0.61430    0.47060    0.59460    1.000
    N55      N        0.73620    0.87600    0.79810    1.000
    C109     C        0.73460    0.79180    0.79210    1.000
    H109     H        0.71730    0.76110    0.75440    1.000
    N56      N        0.76140    0.75840    0.84860    1.000
    N57      N        0.77960    0.82190    0.88930    1.000
    C110     C        0.76410    0.89460    0.85810    1.000
    H110     H        0.77150    0.94980    0.87560    1.000
    C111     C        0.80600    0.81100    0.95680    1.000
    H111     H        0.83020    0.76990    0.96790    1.000
    H112     H        0.81960    0.86540    0.97690    1.000
    C112     C        0.77930    0.77860    0.98150    1.000
    C113     C        0.75000    0.83360    0.98380    1.000
    H113     H        0.74940    0.89130    0.97280    1.000
    C114     C        0.77970    0.69430    0.99750    1.000
    H114     H        0.79920    0.65510    0.99620    1.000
    N58      N        0.64460    0.90790    0.72290    1.000
    C115     C        0.61880    0.83910    0.68790    1.000
    H115     H        0.61580    0.81810    0.65100    1.000
    N59      N        0.59820    0.80650    0.71660    1.000
    N60      N        0.61120    0.85510    0.76920    1.000
    C116     C        0.63990    0.91770    0.77310    1.000
    H116     H        0.65380    0.95980    0.80450    1.000
    C117     C        0.59610    0.85800    0.81200    1.000
    H117     H        0.61350    0.81740    0.84610    1.000
    H118     H        0.60210    0.91570    0.83060    1.000
    C118     C        0.54810    0.83900    0.78200    1.000
    C119     C        0.52340    0.91300    0.76500    1.000
    H119     H        0.53820    0.96590    0.77190    1.000
    C120     C        0.52350    0.76500    0.76600    1.000
    H120     H        0.53860    0.71210    0.77760    1.000
    Cu5      Cu       0.69667    0.95680    0.72349    1.000
    N61      N        0.15730    0.53180    0.64670    1.000
    C121     C        0.16580    0.55830    0.60330    1.000
    H121     H        0.18940    0.53950    0.59970    1.000
    N62      N        0.13440    0.61650    0.56590    1.000
    N63      N        0.10650    0.62600    0.58620    1.000
    C122     C        0.12070    0.57370    0.63620    1.000
    H122     H        0.10740    0.56750    0.65940    1.000
    C123     C        0.07160    0.68920    0.56520    1.000
    H123     H        0.05850    0.70120    0.52060    1.000
    H124     H        0.04800    0.66650    0.57010    1.000
    C124     C        0.08970    0.77060    0.60230    1.000
    C125     C        0.10040    0.77700    0.66390    1.000
    H125     H        0.09910    0.72660    0.68340    1.000
    C126     C        0.09400    0.84590    0.57670    1.000
    H126     H        0.08660    0.84580    0.53500    1.000
    N64      N        0.24560    0.01830    0.75790    1.000
    C127     C        0.23180    0.09580    0.73410    1.000
    H127     H        0.24930    0.13880    0.73180    1.000
    N65      N        0.18910    0.10210    0.71410    1.000
    N66      N        0.17640    0.02850    0.72550    1.000
    C128     C        0.21140    0.97670    0.75250    1.000
    H128     H        0.21180    0.92030    0.76570    1.000
    C129     C        0.13170    0.00850    0.70900    1.000
    H129     H        0.13130    0.00220    0.74720    1.000
    H130     H        0.11130    0.05500    0.68380    1.000
    C130     C        0.11690    0.92650    0.67200    1.000
    C131     C        0.11270    0.85090    0.69750    1.000
    H131     H        0.11840    0.85100    0.73840    1.000
    C132     C        0.10920    0.92200    0.61180    1.000
    H132     H        0.11430    0.97060    0.59460    1.000
    N67      N        0.23620    0.37600    0.79810    1.000
    C133     C        0.23460    0.29180    0.79210    1.000
    H133     H        0.21730    0.26110    0.75440    1.000
    N68      N        0.26140    0.25840    0.84860    1.000
    N69      N        0.27960    0.32190    0.88930    1.000
    C134     C        0.26410    0.39460    0.85810    1.000
    H134     H        0.27150    0.44980    0.87560    1.000
    C135     C        0.30600    0.31100    0.95680    1.000
    H135     H        0.33020    0.26990    0.96790    1.000
    H136     H        0.31960    0.36540    0.97690    1.000
    C136     C        0.27930    0.27860    0.98150    1.000
    C137     C        0.25000    0.33360    0.98380    1.000
    H137     H        0.24940    0.39130    0.97280    1.000
    C138     C        0.27970    0.19430    0.99750    1.000
    H138     H        0.29920    0.15510    0.99620    1.000
    N70      N        0.14460    0.40790    0.72290    1.000
    C139     C        0.11880    0.33910    0.68790    1.000
    H139     H        0.11580    0.31810    0.65100    1.000
    N71      N        0.09820    0.30650    0.71660    1.000
    N72      N        0.11120    0.35510    0.76920    1.000
    C140     C        0.13990    0.41770    0.77310    1.000
    H140     H        0.15380    0.45980    0.80450    1.000
    C141     C        0.09610    0.35800    0.81200    1.000
    H141     H        0.11350    0.31740    0.84610    1.000
    H142     H        0.10210    0.41570    0.83060    1.000
    C142     C        0.04810    0.33900    0.78200    1.000
    C143     C        0.02340    0.41300    0.76500    1.000
    H143     H        0.03820    0.46590    0.77190    1.000
    C144     C        0.02350    0.26500    0.76600    1.000
    H144     H        0.03860    0.21210    0.77760    1.000
    Cu6      Cu       0.19667    0.45680    0.72349    1.000
    N73      N        0.34270    0.03180    0.85330    1.000
    C145     C        0.33420    0.05830    0.89670    1.000
    H145     H        0.31060    0.03950    0.90030    1.000
    N74      N        0.36560    0.11650    0.93410    1.000
    N75      N        0.39350    0.12600    0.91380    1.000
    C146     C        0.37930    0.07370    0.86380    1.000
    H146     H        0.39260    0.06750    0.84060    1.000
    C147     C        0.42840    0.18920    0.93480    1.000
    H147     H        0.44150    0.20120    0.97940    1.000
    H148     H        0.45200    0.16650    0.92990    1.000
    C148     C        0.41030    0.27060    0.89770    1.000
    C149     C        0.39960    0.27700    0.83610    1.000
    H149     H        0.40090    0.22660    0.81660    1.000
    C150     C        0.40600    0.34590    0.92330    1.000
    H150     H        0.41340    0.34580    0.96500    1.000
    N76      N        0.25440    0.51830    0.74210    1.000
    C151     C        0.26820    0.59580    0.76590    1.000
    H151     H        0.25070    0.63880    0.76820    1.000
    N77      N        0.31090    0.60210    0.78590    1.000
    N78      N        0.32360    0.52850    0.77450    1.000
    C152     C        0.28860    0.47670    0.74750    1.000
    H152     H        0.28820    0.42030    0.73430    1.000
    C153     C        0.36830    0.50850    0.79100    1.000
    H153     H        0.36870    0.50220    0.75280    1.000
    H154     H        0.38870    0.55500    0.81620    1.000
    C154     C        0.38310    0.42650    0.82800    1.000
    C155     C        0.38730    0.35090    0.80250    1.000
    H155     H        0.38160    0.35100    0.76160    1.000
    C156     C        0.39080    0.42200    0.88820    1.000
    H156     H        0.38570    0.47060    0.90540    1.000
    N79      N        0.26380    0.87600    0.70190    1.000
    C157     C        0.26540    0.79180    0.70790    1.000
    H157     H        0.28270    0.76110    0.74560    1.000
    N80      N        0.23860    0.75840    0.65140    1.000
    N81      N        0.22040    0.82190    0.61070    1.000
    C158     C        0.23590    0.89460    0.64190    1.000
    H158     H        0.22850    0.94980    0.62440    1.000
    C159     C        0.19400    0.81100    0.54320    1.000
    H159     H        0.16980    0.76990    0.53210    1.000
    H160     H        0.18040    0.86540    0.52310    1.000
    C160     C        0.22070    0.77860    0.51850    1.000
    C161     C        0.25000    0.83360    0.51620    1.000
    H161     H        0.25060    0.89130    0.52720    1.000
    C162     C        0.22030    0.69430    0.50250    1.000
    H162     H        0.20080    0.65510    0.50380    1.000
    N82      N        0.35540    0.90790    0.77710    1.000
    C163     C        0.38120    0.83910    0.81210    1.000
    H163     H        0.38420    0.81810    0.84900    1.000
    N83      N        0.40180    0.80650    0.78340    1.000
    N84      N        0.38880    0.85510    0.73080    1.000
    C164     C        0.36010    0.91770    0.72690    1.000
    H164     H        0.34620    0.95980    0.69550    1.000
    C165     C        0.40390    0.85800    0.68800    1.000
    H165     H        0.38650    0.81740    0.65390    1.000
    H166     H        0.39790    0.91570    0.66940    1.000
    C166     C        0.45190    0.83900    0.71800    1.000
    C167     C        0.47660    0.91300    0.73500    1.000
    H167     H        0.46180    0.96590    0.72810    1.000
    C168     C        0.47650    0.76500    0.73400    1.000
    H168     H        0.46140    0.71210    0.72240    1.000
    Cu7      Cu       0.30333    0.95680    0.77651    1.000
    N85      N        0.84270    0.53180    0.85330    1.000
    C169     C        0.83420    0.55830    0.89670    1.000
    H169     H        0.81060    0.53950    0.90030    1.000
    N86      N        0.86560    0.61650    0.93410    1.000
    N87      N        0.89350    0.62600    0.91380    1.000
    C170     C        0.87930    0.57370    0.86380    1.000
    H170     H        0.89260    0.56750    0.84060    1.000
    C171     C        0.92840    0.68920    0.93480    1.000
    H171     H        0.94150    0.70120    0.97940    1.000
    H172     H        0.95200    0.66650    0.92990    1.000
    C172     C        0.91030    0.77060    0.89770    1.000
    C173     C        0.89960    0.77700    0.83610    1.000
    H173     H        0.90090    0.72660    0.81660    1.000
    C174     C        0.90600    0.84590    0.92330    1.000
    H174     H        0.91340    0.84580    0.96500    1.000
    N88      N        0.75440    0.01830    0.74210    1.000
    C175     C        0.76820    0.09580    0.76590    1.000
    H175     H        0.75070    0.13880    0.76820    1.000
    N89      N        0.81090    0.10210    0.78590    1.000
    N90      N        0.82360    0.02850    0.77450    1.000
    C176     C        0.78860    0.97670    0.74750    1.000
    H176     H        0.78820    0.92030    0.73430    1.000
    C177     C        0.86830    0.00850    0.79100    1.000
    H177     H        0.86870    0.00220    0.75280    1.000
    H178     H        0.88870    0.05500    0.81620    1.000
    C178     C        0.88310    0.92650    0.82800    1.000
    C179     C        0.88730    0.85090    0.80250    1.000
    H179     H        0.88160    0.85100    0.76160    1.000
    C180     C        0.89080    0.92200    0.88820    1.000
    H180     H        0.88570    0.97060    0.90540    1.000
    N91      N        0.76380    0.37600    0.70190    1.000
    C181     C        0.76540    0.29180    0.70790    1.000
    H181     H        0.78270    0.26110    0.74560    1.000
    N92      N        0.73860    0.25840    0.65140    1.000
    N93      N        0.72040    0.32190    0.61070    1.000
    C182     C        0.73590    0.39460    0.64190    1.000
    H182     H        0.72850    0.44980    0.62440    1.000
    C183     C        0.69400    0.31100    0.54320    1.000
    H183     H        0.66980    0.26990    0.53210    1.000
    H184     H        0.68040    0.36540    0.52310    1.000
    C184     C        0.72070    0.27860    0.51850    1.000
    C185     C        0.75000    0.33360    0.51620    1.000
    H185     H        0.75060    0.39130    0.52720    1.000
    C186     C        0.72030    0.19430    0.50250    1.000
    H186     H        0.70080    0.15510    0.50380    1.000
    N94      N        0.85540    0.40790    0.77710    1.000
    C187     C        0.88120    0.33910    0.81210    1.000
    H187     H        0.88420    0.31810    0.84900    1.000
    N95      N        0.90180    0.30650    0.78340    1.000
    N96      N        0.88880    0.35510    0.73080    1.000
    C188     C        0.86010    0.41770    0.72690    1.000
    H188     H        0.84620    0.45980    0.69550    1.000
    C189     C        0.90390    0.35800    0.68800    1.000
    H189     H        0.88650    0.31740    0.65390    1.000
    H190     H        0.89790    0.41570    0.66940    1.000
    C190     C        0.95190    0.33900    0.71800    1.000
    C191     C        0.97660    0.41300    0.73500    1.000
    H191     H        0.96180    0.46590    0.72810    1.000
    C192     C        0.97650    0.26500    0.73400    1.000
    H192     H        0.96140    0.21210    0.72240    1.000
    Cu8      Cu       0.80333    0.45680    0.77651    1.000
