# CIF file generated by openbabel 3.1.0, see https://openbabel.org
data_I
_chemical_name_common 'image0'
_cell_length_a 28.105
_cell_length_b 28.105
_cell_length_c 14.598
_cell_angle_alpha 90
_cell_angle_beta 90
_cell_angle_gamma 120
_space_group_name_H-M_alt 'P 1'
_space_group_name_Hall 'P 1'
loop_
    _symmetry_equiv_pos_as_xyz
    x,y,z
loop_
    _atom_site_label
    _atom_site_type_symbol
    _atom_site_fract_x
    _atom_site_fract_y
    _atom_site_fract_z
    _atom_site_occupancy
    C1       C        0.35980    0.25240    0.87660    1.000
    C2       C        0.34500    0.28770    0.82430    1.000
    C3       C        0.38100    0.32070    0.75700    1.000
    H1       H        0.41300    0.31980    0.74550    1.000
    C4       C        0.36890    0.35560    0.70630    1.000
    C5       C        0.32140    0.35730    0.72380    1.000
    H2       H        0.31280    0.38010    0.69020    1.000
    C6       C        0.28670    0.32360    0.79320    1.000
    C7       C        0.29780    0.29080    0.84130    1.000
    H3       H        0.27380    0.26930    0.88730    1.000
    C8       C        0.23510    0.32750    0.81390    1.000
    C9       C        0.39790    0.42370    0.59070    1.000
    H4       H        0.38680    0.44390    0.63080    1.000
    H5       H        0.36920    0.40410    0.54580    1.000
    C10      C        0.45200    0.46280    0.54340    1.000
    H6       H        0.45720    0.48670    0.71580    1.000
    C11      C        0.38890    0.52780    0.80400    1.000
    H7       H        0.36460    0.49490    0.77530    1.000
    C12      C        0.37640    0.54130    0.88850    1.000
    C13      C        0.31970    0.50180    0.93240    1.000
    O1       O        0.32100    0.21530    0.92460    1.000
    O2       O        0.40615    0.25889    0.87050    1.000
    O3       O        0.20614    0.29967    0.87860    1.000
    O4       O        0.22570    0.35760    0.76200    1.000
    O5       O        0.40762    0.38633    0.64220    1.000
    O6       O        0.29080    0.45980    0.88170    1.000
    O7       O        0.30714    0.50780    0.00360    1.000
    C14      C        0.74760    0.10740    0.87660    1.000
    C15      C        0.71230    0.05730    0.82430    1.000
    C16      C        0.67930    0.06030    0.75700    1.000
    H8       H        0.68020    0.09320    0.74550    1.000
    C17      C        0.64440    0.01330    0.70630    1.000
    C18      C        0.64270    0.96410    0.72380    1.000
    H9       H        0.61990    0.93270    0.69020    1.000
    C19      C        0.67640    0.96310    0.79320    1.000
    C20      C        0.70920    0.00700    0.84130    1.000
    H10      H        0.73070    0.00450    0.88730    1.000
    C21      C        0.67250    0.90760    0.81390    1.000
    C22      C        0.57630    0.97420    0.59070    1.000
    H11      H        0.55610    0.94290    0.63080    1.000
    H12      H        0.59590    0.96510    0.54580    1.000
    C23      C        0.53720    0.98920    0.54340    1.000
    H13      H        0.51330    0.97050    0.71580    1.000
    C24      C        0.47220    0.86110    0.80400    1.000
    H14      H        0.50510    0.86970    0.77530    1.000
    C25      C        0.45870    0.83510    0.88850    1.000
    C26      C        0.49820    0.81790    0.93240    1.000
    O8       O        0.78470    0.10570    0.92460    1.000
    O9       O        0.74111    0.14726    0.87050    1.000
    O10      O        0.70033    0.90647    0.87860    1.000
    O11      O        0.64240    0.86810    0.76200    1.000
    O12      O        0.61367    0.02129    0.64220    1.000
    O13      O        0.54020    0.83100    0.88170    1.000
    O14      O        0.49220    0.79934    0.00360    1.000
    C27      C        0.89260    0.64020    0.87660    1.000
    C28      C        0.94270    0.65500    0.82430    1.000
    C29      C        0.93970    0.61900    0.75700    1.000
    H15      H        0.90680    0.58700    0.74550    1.000
    C30      C        0.98670    0.63110    0.70630    1.000
    C31      C        0.03590    0.67860    0.72380    1.000
    H16      H        0.06730    0.68720    0.69020    1.000
    C32      C        0.03690    0.71330    0.79320    1.000
    C33      C        0.99300    0.70220    0.84130    1.000
    H17      H        0.99550    0.72620    0.88730    1.000
    C34      C        0.09240    0.76490    0.81390    1.000
    C35      C        0.02580    0.60210    0.59070    1.000
    H18      H        0.05710    0.61320    0.63080    1.000
    H19      H        0.03490    0.63080    0.54580    1.000
    C36      C        0.01080    0.54800    0.54340    1.000
    H20      H        0.02950    0.54280    0.71580    1.000
    C37      C        0.13890    0.61110    0.80400    1.000
    H21      H        0.13030    0.63540    0.77530    1.000
    C38      C        0.16490    0.62360    0.88850    1.000
    C39      C        0.18210    0.68030    0.93240    1.000
    O15      O        0.89430    0.67900    0.92460    1.000
    O16      O        0.85274    0.59385    0.87050    1.000
    O17      O        0.09353    0.79386    0.87860    1.000
    O18      O        0.13190    0.77430    0.76200    1.000
    O19      O        0.97871    0.59238    0.64220    1.000
    O20      O        0.16900    0.70920    0.88170    1.000
    O21      O        0.20066    0.69286    0.00360    1.000
    C40      C        0.25240    0.35980    0.12340    1.000
    C41      C        0.28770    0.34500    0.17570    1.000
    C42      C        0.32070    0.38100    0.24300    1.000
    H22      H        0.31980    0.41300    0.25450    1.000
    C43      C        0.35560    0.36890    0.29370    1.000
    C44      C        0.35730    0.32140    0.27620    1.000
    H23      H        0.38010    0.31280    0.30980    1.000
    C45      C        0.32360    0.28670    0.20680    1.000
    C46      C        0.29080    0.29780    0.15870    1.000
    H24      H        0.26930    0.27380    0.11270    1.000
    C47      C        0.32750    0.23510    0.18610    1.000
    C48      C        0.42370    0.39790    0.40930    1.000
    H25      H        0.44390    0.38680    0.36920    1.000
    H26      H        0.40410    0.36920    0.45420    1.000
    C49      C        0.46280    0.45200    0.45660    1.000
    H27      H        0.48670    0.45720    0.28420    1.000
    C50      C        0.52780    0.38890    0.19600    1.000
    H28      H        0.49490    0.36460    0.22470    1.000
    C51      C        0.54130    0.37640    0.11150    1.000
    C52      C        0.50180    0.31970    0.06760    1.000
    O22      O        0.21530    0.32100    0.07540    1.000
    O23      O        0.25889    0.40615    0.12950    1.000
    O24      O        0.29967    0.20614    0.12140    1.000
    O25      O        0.35760    0.22570    0.23800    1.000
    O26      O        0.38633    0.40762    0.35780    1.000
    O27      O        0.45980    0.29080    0.11830    1.000
    O28      O        0.50780    0.30714    0.99640    1.000
    C53      C        0.10740    0.74760    0.12340    1.000
    C54      C        0.05730    0.71230    0.17570    1.000
    C55      C        0.06030    0.67930    0.24300    1.000
    H29      H        0.09320    0.68020    0.25450    1.000
    C56      C        0.01330    0.64440    0.29370    1.000
    C57      C        0.96410    0.64270    0.27620    1.000
    H30      H        0.93270    0.61990    0.30980    1.000
    C58      C        0.96310    0.67640    0.20680    1.000
    C59      C        0.00700    0.70920    0.15870    1.000
    H31      H        0.00450    0.73070    0.11270    1.000
    C60      C        0.90760    0.67250    0.18610    1.000
    C61      C        0.97420    0.57630    0.40930    1.000
    H32      H        0.94290    0.55610    0.36920    1.000
    H33      H        0.96510    0.59590    0.45420    1.000
    C62      C        0.98920    0.53720    0.45660    1.000
    H34      H        0.97050    0.51330    0.28420    1.000
    C63      C        0.86110    0.47220    0.19600    1.000
    H35      H        0.86970    0.50510    0.22470    1.000
    C64      C        0.83510    0.45870    0.11150    1.000
    C65      C        0.81790    0.49820    0.06760    1.000
    O29      O        0.10570    0.78470    0.07540    1.000
    O30      O        0.14726    0.74111    0.12950    1.000
    O31      O        0.90647    0.70033    0.12140    1.000
    O32      O        0.86810    0.64240    0.23800    1.000
    O33      O        0.02129    0.61367    0.35780    1.000
    O34      O        0.83100    0.54020    0.11830    1.000
    O35      O        0.79934    0.49220    0.99640    1.000
    C66      C        0.64020    0.89260    0.12340    1.000
    C67      C        0.65500    0.94270    0.17570    1.000
    C68      C        0.61900    0.93970    0.24300    1.000
    H36      H        0.58700    0.90680    0.25450    1.000
    C69      C        0.63110    0.98670    0.29370    1.000
    C70      C        0.67860    0.03590    0.27620    1.000
    H37      H        0.68720    0.06730    0.30980    1.000
    C71      C        0.71330    0.03690    0.20680    1.000
    C72      C        0.70220    0.99300    0.15870    1.000
    H38      H        0.72620    0.99550    0.11270    1.000
    C73      C        0.76490    0.09240    0.18610    1.000
    C74      C        0.60210    0.02580    0.40930    1.000
    H39      H        0.61320    0.05710    0.36920    1.000
    H40      H        0.63080    0.03490    0.45420    1.000
    C75      C        0.54800    0.01080    0.45660    1.000
    H41      H        0.54280    0.02950    0.28420    1.000
    C76      C        0.61110    0.13890    0.19600    1.000
    H42      H        0.63540    0.13030    0.22470    1.000
    C77      C        0.62360    0.16490    0.11150    1.000
    C78      C        0.68030    0.18210    0.06760    1.000
    O36      O        0.67900    0.89430    0.07540    1.000
    O37      O        0.59385    0.85274    0.12950    1.000
    O38      O        0.79386    0.09353    0.12140    1.000
    O39      O        0.77430    0.13190    0.23800    1.000
    O40      O        0.59238    0.97871    0.35780    1.000
    O41      O        0.70920    0.16900    0.11830    1.000
    O42      O        0.69286    0.20066    0.99640    1.000
    C79      C        0.64020    0.74760    0.12340    1.000
    C80      C        0.65500    0.71230    0.17570    1.000
    C81      C        0.61900    0.67930    0.24300    1.000
    H43      H        0.58700    0.68020    0.25450    1.000
    C82      C        0.63110    0.64440    0.29370    1.000
    C83      C        0.67860    0.64270    0.27620    1.000
    H44      H        0.68720    0.61990    0.30980    1.000
    C84      C        0.71330    0.67640    0.20680    1.000
    C85      C        0.70220    0.70920    0.15870    1.000
    H45      H        0.72620    0.73070    0.11270    1.000
    C86      C        0.76490    0.67250    0.18610    1.000
    C87      C        0.60210    0.57630    0.40930    1.000
    H46      H        0.61320    0.55610    0.36920    1.000
    H47      H        0.63080    0.59590    0.45420    1.000
    C88      C        0.54800    0.53720    0.45660    1.000
    H48      H        0.54280    0.51330    0.28420    1.000
    C89      C        0.61110    0.47220    0.19600    1.000
    H49      H        0.63540    0.50510    0.22470    1.000
    C90      C        0.62360    0.45870    0.11150    1.000
    C91      C        0.68030    0.49820    0.06760    1.000
    O43      O        0.67900    0.78470    0.07540    1.000
    O44      O        0.59385    0.74111    0.12950    1.000
    O45      O        0.79386    0.70033    0.12140    1.000
    O46      O        0.77430    0.64240    0.23800    1.000
    O47      O        0.59238    0.61367    0.35780    1.000
    O48      O        0.70920    0.54020    0.11830    1.000
    O49      O        0.69286    0.49220    0.99640    1.000
    C92      C        0.25240    0.89260    0.12340    1.000
    C93      C        0.28770    0.94270    0.17570    1.000
    C94      C        0.32070    0.93970    0.24300    1.000
    H50      H        0.31980    0.90680    0.25450    1.000
    C95      C        0.35560    0.98670    0.29370    1.000
    C96      C        0.35730    0.03590    0.27620    1.000
    H51      H        0.38010    0.06730    0.30980    1.000
    C97      C        0.32360    0.03690    0.20680    1.000
    C98      C        0.29080    0.99300    0.15870    1.000
    H52      H        0.26930    0.99550    0.11270    1.000
    C99      C        0.32750    0.09240    0.18610    1.000
    C100     C        0.42370    0.02580    0.40930    1.000
    H53      H        0.44390    0.05710    0.36920    1.000
    H54      H        0.40410    0.03490    0.45420    1.000
    C101     C        0.46280    0.01080    0.45660    1.000
    H55      H        0.48670    0.02950    0.28420    1.000
    C102     C        0.52780    0.13890    0.19600    1.000
    H56      H        0.49490    0.13030    0.22470    1.000
    C103     C        0.54130    0.16490    0.11150    1.000
    C104     C        0.50180    0.18210    0.06760    1.000
    O50      O        0.21530    0.89430    0.07540    1.000
    O51      O        0.25889    0.85274    0.12950    1.000
    O52      O        0.29967    0.09353    0.12140    1.000
    O53      O        0.35760    0.13190    0.23800    1.000
    O54      O        0.38633    0.97871    0.35780    1.000
    O55      O        0.45980    0.16900    0.11830    1.000
    O56      O        0.50780    0.20066    0.99640    1.000
    C105     C        0.10740    0.35980    0.12340    1.000
    C106     C        0.05730    0.34500    0.17570    1.000
    C107     C        0.06030    0.38100    0.24300    1.000
    H57      H        0.09320    0.41300    0.25450    1.000
    C108     C        0.01330    0.36890    0.29370    1.000
    C109     C        0.96410    0.32140    0.27620    1.000
    H58      H        0.93270    0.31280    0.30980    1.000
    C110     C        0.96310    0.28670    0.20680    1.000
    C111     C        0.00700    0.29780    0.15870    1.000
    H59      H        0.00450    0.27380    0.11270    1.000
    C112     C        0.90760    0.23510    0.18610    1.000
    C113     C        0.97420    0.39790    0.40930    1.000
    H60      H        0.94290    0.38680    0.36920    1.000
    H61      H        0.96510    0.36920    0.45420    1.000
    C114     C        0.98920    0.45200    0.45660    1.000
    H62      H        0.97050    0.45720    0.28420    1.000
    C115     C        0.86110    0.38890    0.19600    1.000
    H63      H        0.86970    0.36460    0.22470    1.000
    C116     C        0.83510    0.37640    0.11150    1.000
    C117     C        0.81790    0.31970    0.06760    1.000
    O57      O        0.10570    0.32100    0.07540    1.000
    O58      O        0.14726    0.40615    0.12950    1.000
    O59      O        0.90647    0.20614    0.12140    1.000
    O60      O        0.86810    0.22570    0.23800    1.000
    O61      O        0.02129    0.40762    0.35780    1.000
    O62      O        0.83100    0.29080    0.11830    1.000
    O63      O        0.79934    0.30714    0.99640    1.000
    C118     C        0.74760    0.64020    0.87660    1.000
    C119     C        0.71230    0.65500    0.82430    1.000
    C120     C        0.67930    0.61900    0.75700    1.000
    H64      H        0.68020    0.58700    0.74550    1.000
    C121     C        0.64440    0.63110    0.70630    1.000
    C122     C        0.64270    0.67860    0.72380    1.000
    H65      H        0.61990    0.68720    0.69020    1.000
    C123     C        0.67640    0.71330    0.79320    1.000
    C124     C        0.70920    0.70220    0.84130    1.000
    H66      H        0.73070    0.72620    0.88730    1.000
    C125     C        0.67250    0.76490    0.81390    1.000
    C126     C        0.57630    0.60210    0.59070    1.000
    H67      H        0.55610    0.61320    0.63080    1.000
    H68      H        0.59590    0.63080    0.54580    1.000
    C127     C        0.53720    0.54800    0.54340    1.000
    H69      H        0.51330    0.54280    0.71580    1.000
    C128     C        0.47220    0.61110    0.80400    1.000
    H70      H        0.50510    0.63540    0.77530    1.000
    C129     C        0.45870    0.62360    0.88850    1.000
    C130     C        0.49820    0.68030    0.93240    1.000
    O64      O        0.78470    0.67900    0.92460    1.000
    O65      O        0.74111    0.59385    0.87050    1.000
    O66      O        0.70033    0.79386    0.87860    1.000
    O67      O        0.64240    0.77430    0.76200    1.000
    O68      O        0.61367    0.59238    0.64220    1.000
    O69      O        0.54020    0.70920    0.88170    1.000
    O70      O        0.49220    0.69286    0.00360    1.000
    C131     C        0.89260    0.25240    0.87660    1.000
    C132     C        0.94270    0.28770    0.82430    1.000
    C133     C        0.93970    0.32070    0.75700    1.000
    H71      H        0.90680    0.31980    0.74550    1.000
    C134     C        0.98670    0.35560    0.70630    1.000
    C135     C        0.03590    0.35730    0.72380    1.000
    H72      H        0.06730    0.38010    0.69020    1.000
    C136     C        0.03690    0.32360    0.79320    1.000
    C137     C        0.99300    0.29080    0.84130    1.000
    H73      H        0.99550    0.26930    0.88730    1.000
    C138     C        0.09240    0.32750    0.81390    1.000
    C139     C        0.02580    0.42370    0.59070    1.000
    H74      H        0.05710    0.44390    0.63080    1.000
    H75      H        0.03490    0.40410    0.54580    1.000
    C140     C        0.01080    0.46280    0.54340    1.000
    H76      H        0.02950    0.48670    0.71580    1.000
    C141     C        0.13890    0.52780    0.80400    1.000
    H77      H        0.13030    0.49490    0.77530    1.000
    C142     C        0.16490    0.54130    0.88850    1.000
    C143     C        0.18210    0.50180    0.93240    1.000
    O71      O        0.89430    0.21530    0.92460    1.000
    O72      O        0.85274    0.25889    0.87050    1.000
    O73      O        0.09353    0.29967    0.87860    1.000
    O74      O        0.13190    0.35760    0.76200    1.000
    O75      O        0.97871    0.38633    0.64220    1.000
    O76      O        0.16900    0.45980    0.88170    1.000
    O77      O        0.20066    0.50780    0.00360    1.000
    C144     C        0.35980    0.10740    0.87660    1.000
    C145     C        0.34500    0.05730    0.82430    1.000
    C146     C        0.38100    0.06030    0.75700    1.000
    H78      H        0.41300    0.09320    0.74550    1.000
    C147     C        0.36890    0.01330    0.70630    1.000
    C148     C        0.32140    0.96410    0.72380    1.000
    H79      H        0.31280    0.93270    0.69020    1.000
    C149     C        0.28670    0.96310    0.79320    1.000
    C150     C        0.29780    0.00700    0.84130    1.000
    H80      H        0.27380    0.00450    0.88730    1.000
    C151     C        0.23510    0.90760    0.81390    1.000
    C152     C        0.39790    0.97420    0.59070    1.000
    H81      H        0.38680    0.94290    0.63080    1.000
    H82      H        0.36920    0.96510    0.54580    1.000
    C153     C        0.45200    0.98920    0.54340    1.000
    H83      H        0.45720    0.97050    0.71580    1.000
    C154     C        0.38890    0.86110    0.80400    1.000
    H84      H        0.36460    0.86970    0.77530    1.000
    C155     C        0.37640    0.83510    0.88850    1.000
    C156     C        0.31970    0.81790    0.93240    1.000
    O78      O        0.32100    0.10570    0.92460    1.000
    O79      O        0.40615    0.14726    0.87050    1.000
    O80      O        0.20614    0.90647    0.87860    1.000
    O81      O        0.22570    0.86810    0.76200    1.000
    O82      O        0.40762    0.02129    0.64220    1.000
    O83      O        0.29080    0.83100    0.88170    1.000
    O84      O        0.30714    0.79934    0.00360    1.000
    Mn1      Mn       0.31173    0.15586    0.02518    1.000
    Mn2      Mn       0.45173    0.22586    0.93261    1.000
    Mn3      Mn       0.42118    0.21059    0.18607    1.000
    O85      O        0.39823    0.19911    0.04790    1.000
    Mn4      Mn       0.84414    0.15587    0.02518    1.000
    Mn5      Mn       0.77414    0.22587    0.93261    1.000
    Mn6      Mn       0.78941    0.21059    0.18607    1.000
    O86      O        0.80089    0.19912    0.04790    1.000
    Mn7      Mn       0.84413    0.68827    0.02518    1.000
    Mn8      Mn       0.77413    0.54827    0.93261    1.000
    Mn9      Mn       0.78941    0.57882    0.18607    1.000
    O87      O        0.80088    0.60177    0.04790    1.000
    Mn10     Mn       0.15586    0.31173    0.97482    1.000
    Mn11     Mn       0.22586    0.45173    0.06739    1.000
    Mn12     Mn       0.21059    0.42118    0.81393    1.000
    O88      O        0.19911    0.39823    0.95210    1.000
    Mn13     Mn       0.15587    0.84414    0.97482    1.000
    Mn14     Mn       0.22587    0.77414    0.06739    1.000
    Mn15     Mn       0.21059    0.78941    0.81393    1.000
    O89      O        0.19912    0.80089    0.95210    1.000
    Mn16     Mn       0.68827    0.84413    0.97482    1.000
    Mn17     Mn       0.54827    0.77413    0.06739    1.000
    Mn18     Mn       0.57882    0.78941    0.81393    1.000
    O90      O        0.60177    0.80088    0.95210    1.000
    C157     C        0.48931    0.51069    0.58710    1.000
    C158     C        0.47885    0.52115    0.68350    1.000
    C159     C        0.43697    0.56303    0.76460    1.000
    C160     C        0.41116    0.58884    0.93140    1.000
    H85      H        0.40270    0.59730    0.98850    1.000
    O91      O        0.44945    0.55055    0.67760    1.000
    C161     C        0.48931    0.97862    0.58710    1.000
    C162     C        0.47885    0.95770    0.68350    1.000
    C163     C        0.43697    0.87394    0.76460    1.000
    C164     C        0.41116    0.82232    0.93140    1.000
    H86      H        0.40270    0.80540    0.98850    1.000
    O92      O        0.44945    0.89890    0.67760    1.000
    C165     C        0.02138    0.51069    0.58710    1.000
    C166     C        0.04230    0.52115    0.68350    1.000
    C167     C        0.12606    0.56303    0.76460    1.000
    C168     C        0.17768    0.58884    0.93140    1.000
    H87      H        0.19460    0.59730    0.98850    1.000
    O93      O        0.10110    0.55055    0.67760    1.000
    C169     C        0.51069    0.48931    0.41290    1.000
    C170     C        0.52115    0.47885    0.31650    1.000
    C171     C        0.56303    0.43697    0.23540    1.000
    C172     C        0.58884    0.41116    0.06860    1.000
    H88      H        0.59730    0.40270    0.01150    1.000
    O94      O        0.55055    0.44945    0.32240    1.000
    C173     C        0.97862    0.48931    0.41290    1.000
    C174     C        0.95770    0.47885    0.31650    1.000
    C175     C        0.87394    0.43697    0.23540    1.000
    C176     C        0.82232    0.41116    0.06860    1.000
    H89      H        0.80540    0.40270    0.01150    1.000
    O95      O        0.89890    0.44945    0.32240    1.000
    C177     C        0.51069    0.02138    0.41290    1.000
    C178     C        0.52115    0.04230    0.31650    1.000
    C179     C        0.56303    0.12606    0.23540    1.000
    C180     C        0.58884    0.17768    0.06860    1.000
    H90      H        0.59730    0.19460    0.01150    1.000
    O96      O        0.55055    0.10110    0.32240    1.000
