# CIF file generated by openbabel 3.1.0, see https://openbabel.org
data_I
_chemical_name_common 'image0'
_cell_length_a 31.978
_cell_length_b 6.5812
_cell_length_c 16.862
_cell_angle_alpha 90
_cell_angle_beta 90
_cell_angle_gamma 90
_space_group_name_H-M_alt 'P 1'
_space_group_name_Hall 'P 1'
loop_
    _symmetry_equiv_pos_as_xyz
    x,y,z
loop_
    _atom_site_label
    _atom_site_type_symbol
    _atom_site_fract_x
    _atom_site_fract_y
    _atom_site_fract_z
    _atom_site_occupancy
    O1       O        0.77950    0.15880    0.91820    1.000
    C1       C        0.84790    0.18040    0.78840    1.000
    C2       C        0.87823    0.18040    0.73090    1.000
    H1       H        0.83690    0.31200    0.80940    1.000
    H2       H        0.88929    0.31200    0.71000    1.000
    O2       O        0.27950    0.65880    0.91820    1.000
    C3       C        0.34790    0.68040    0.78840    1.000
    C4       C        0.37823    0.68040    0.73090    1.000
    H3       H        0.33690    0.81200    0.80940    1.000
    H4       H        0.38929    0.81200    0.71000    1.000
    O3       O        0.22050    0.84120    0.91820    1.000
    C5       C        0.15210    0.81960    0.78840    1.000
    C6       C        0.12177    0.81960    0.73090    1.000
    H5       H        0.16310    0.68800    0.80940    1.000
    H6       H        0.11071    0.68800    0.71000    1.000
    O4       O        0.72050    0.34120    0.91820    1.000
    C7       C        0.65210    0.31960    0.78840    1.000
    C8       C        0.62177    0.31960    0.73090    1.000
    H7       H        0.66310    0.18800    0.80940    1.000
    H8       H        0.61071    0.18800    0.71000    1.000
    O5       O        0.22050    0.15880    0.08180    1.000
    C9       C        0.15210    0.18040    0.21160    1.000
    C10      C        0.12177    0.18040    0.26910    1.000
    H9       H        0.16310    0.31200    0.19060    1.000
    H10      H        0.11071    0.31200    0.29000    1.000
    O6       O        0.72050    0.65880    0.08180    1.000
    C11      C        0.65210    0.68040    0.21160    1.000
    C12      C        0.62177    0.68040    0.26910    1.000
    H11      H        0.66310    0.81200    0.19060    1.000
    H12      H        0.61071    0.81200    0.29000    1.000
    O7       O        0.77950    0.84120    0.08180    1.000
    C13      C        0.84790    0.81960    0.21160    1.000
    C14      C        0.87823    0.81960    0.26910    1.000
    H13      H        0.83690    0.68800    0.19060    1.000
    H14      H        0.88929    0.68800    0.29000    1.000
    O8       O        0.27950    0.34120    0.08180    1.000
    C15      C        0.34790    0.31960    0.21160    1.000
    C16      C        0.37823    0.31960    0.26910    1.000
    H15      H        0.33690    0.18800    0.19060    1.000
    H16      H        0.38929    0.18800    0.29000    1.000
    O9       O        0.22050    0.84120    0.08180    1.000
    C17      C        0.15210    0.81960    0.21160    1.000
    C18      C        0.12177    0.81960    0.26910    1.000
    H17      H        0.16310    0.68800    0.19060    1.000
    H18      H        0.11071    0.68800    0.29000    1.000
    O10      O        0.72050    0.34120    0.08180    1.000
    C19      C        0.65210    0.31960    0.21160    1.000
    C20      C        0.62177    0.31960    0.26910    1.000
    H19      H        0.66310    0.18800    0.19060    1.000
    H20      H        0.61071    0.18800    0.29000    1.000
    O11      O        0.77950    0.15880    0.08180    1.000
    C21      C        0.84790    0.18040    0.21160    1.000
    C22      C        0.87823    0.18040    0.26910    1.000
    H21      H        0.83690    0.31200    0.19060    1.000
    H22      H        0.88929    0.31200    0.29000    1.000
    O12      O        0.27950    0.65880    0.08180    1.000
    C23      C        0.34790    0.68040    0.21160    1.000
    C24      C        0.37823    0.68040    0.26910    1.000
    H23      H        0.33690    0.81200    0.19060    1.000
    H24      H        0.38929    0.81200    0.29000    1.000
    O13      O        0.77950    0.84120    0.91820    1.000
    C25      C        0.84790    0.81960    0.78840    1.000
    C26      C        0.87823    0.81960    0.73090    1.000
    H25      H        0.83690    0.68800    0.80940    1.000
    H26      H        0.88929    0.68800    0.71000    1.000
    O14      O        0.27950    0.34120    0.91820    1.000
    C27      C        0.34790    0.31960    0.78840    1.000
    C28      C        0.37823    0.31960    0.73090    1.000
    H27      H        0.33690    0.18800    0.80940    1.000
    H28      H        0.38929    0.18800    0.71000    1.000
    O15      O        0.22050    0.15880    0.91820    1.000
    C29      C        0.15210    0.18040    0.78840    1.000
    C30      C        0.12177    0.18040    0.73090    1.000
    H29      H        0.16310    0.31200    0.80940    1.000
    H30      H        0.11071    0.31200    0.71000    1.000
    O16      O        0.72050    0.65880    0.91820    1.000
    C31      C        0.65210    0.68040    0.78840    1.000
    C32      C        0.62177    0.68040    0.73090    1.000
    H31      H        0.66310    0.81200    0.80940    1.000
    H32      H        0.61071    0.81200    0.71000    1.000
    Al1      Al       0.75000    0.25000    0.00000    1.000
    Al2      Al       0.25000    0.75000    0.00000    1.000
    Al3      Al       0.25000    0.25000    0.00000    1.000
    Al4      Al       0.75000    0.75000    0.00000    1.000
    O17      O        0.72510    0.00000    0.00000    1.000
    H33      H        0.69380    0.00000    0.00000    1.000
    O18      O        0.22510    0.50000    0.00000    1.000
    H34      H        0.19380    0.50000    0.00000    1.000
    O19      O        0.27490    0.00000    0.00000    1.000
    H35      H        0.30620    0.00000    0.00000    1.000
    O20      O        0.77490    0.50000    0.00000    1.000
    H36      H        0.80620    0.50000    0.00000    1.000
    C33      C        0.80620    0.00000    0.86750    1.000
    C34      C        0.83280    0.00000    0.81710    1.000
    C35      C        0.89338    0.00000    0.70220    1.000
    C36      C        0.92369    0.00000    0.64470    1.000
    C37      C        0.96660    0.00000    0.67140    1.000
    C38      C        0.90959    0.00000    0.56330    1.000
    C39      C        0.97940    0.00000    0.74580    1.000
    C40      C        0.87040    0.00000    0.53910    1.000
    H37      H        0.96100    0.00000    0.79380    1.000
    H38      H        0.84510    0.00000    0.57400    1.000
    C41      C        0.30620    0.50000    0.86750    1.000
    C42      C        0.33280    0.50000    0.81710    1.000
    C43      C        0.39338    0.50000    0.70220    1.000
    C44      C        0.42369    0.50000    0.64470    1.000
    C45      C        0.46660    0.50000    0.67140    1.000
    C46      C        0.40959    0.50000    0.56330    1.000
    C47      C        0.47940    0.50000    0.74580    1.000
    C48      C        0.37040    0.50000    0.53910    1.000
    H39      H        0.46100    0.50000    0.79380    1.000
    H40      H        0.34510    0.50000    0.57400    1.000
    C49      C        0.19380    0.00000    0.86750    1.000
    C50      C        0.16720    0.00000    0.81710    1.000
    C51      C        0.10662    0.00000    0.70220    1.000
    C52      C        0.07631    0.00000    0.64470    1.000
    C53      C        0.03340    0.00000    0.67140    1.000
    C54      C        0.09041    0.00000    0.56330    1.000
    C55      C        0.02060    0.00000    0.74580    1.000
    C56      C        0.12960    0.00000    0.53910    1.000
    H41      H        0.03900    0.00000    0.79380    1.000
    H42      H        0.15490    0.00000    0.57400    1.000
    C57      C        0.69380    0.50000    0.86750    1.000
    C58      C        0.66720    0.50000    0.81710    1.000
    C59      C        0.60662    0.50000    0.70220    1.000
    C60      C        0.57631    0.50000    0.64470    1.000
    C61      C        0.53340    0.50000    0.67140    1.000
    C62      C        0.59041    0.50000    0.56330    1.000
    C63      C        0.52060    0.50000    0.74580    1.000
    C64      C        0.62960    0.50000    0.53910    1.000
    H43      H        0.53900    0.50000    0.79380    1.000
    H44      H        0.65490    0.50000    0.57400    1.000
    C65      C        0.19380    0.00000    0.13250    1.000
    C66      C        0.16720    0.00000    0.18290    1.000
    C67      C        0.10662    0.00000    0.29780    1.000
    C68      C        0.07631    0.00000    0.35530    1.000
    C69      C        0.03340    0.00000    0.32860    1.000
    C70      C        0.09041    0.00000    0.43670    1.000
    C71      C        0.02060    0.00000    0.25420    1.000
    C72      C        0.12960    0.00000    0.46090    1.000
    H45      H        0.03900    0.00000    0.20620    1.000
    H46      H        0.15490    0.00000    0.42600    1.000
    C73      C        0.69380    0.50000    0.13250    1.000
    C74      C        0.66720    0.50000    0.18290    1.000
    C75      C        0.60662    0.50000    0.29780    1.000
    C76      C        0.57631    0.50000    0.35530    1.000
    C77      C        0.53340    0.50000    0.32860    1.000
    C78      C        0.59041    0.50000    0.43670    1.000
    C79      C        0.52060    0.50000    0.25420    1.000
    C80      C        0.62960    0.50000    0.46090    1.000
    H47      H        0.53900    0.50000    0.20620    1.000
    H48      H        0.65490    0.50000    0.42600    1.000
    C81      C        0.80620    0.00000    0.13250    1.000
    C82      C        0.83280    0.00000    0.18290    1.000
    C83      C        0.89338    0.00000    0.29780    1.000
    C84      C        0.92369    0.00000    0.35530    1.000
    C85      C        0.96660    0.00000    0.32860    1.000
    C86      C        0.90959    0.00000    0.43670    1.000
    C87      C        0.97940    0.00000    0.25420    1.000
    C88      C        0.87040    0.00000    0.46090    1.000
    H49      H        0.96100    0.00000    0.20620    1.000
    H50      H        0.84510    0.00000    0.42600    1.000
    C89      C        0.30620    0.50000    0.13250    1.000
    C90      C        0.33280    0.50000    0.18290    1.000
    C91      C        0.39338    0.50000    0.29780    1.000
    C92      C        0.42369    0.50000    0.35530    1.000
    C93      C        0.46660    0.50000    0.32860    1.000
    C94      C        0.40959    0.50000    0.43670    1.000
    C95      C        0.47940    0.50000    0.25420    1.000
    C96      C        0.37040    0.50000    0.46090    1.000
    H51      H        0.46100    0.50000    0.20620    1.000
    H52      H        0.34510    0.50000    0.42600    1.000
    N1       N        0.00000    0.00000    0.62550    1.000
    H53      H        0.00000    0.00000    0.56620    1.000
    N2       N        0.50000    0.50000    0.62550    1.000
    H54      H        0.50000    0.50000    0.56620    1.000
    N3       N        0.00000    0.00000    0.37450    1.000
    H55      H        0.00000    0.00000    0.43380    1.000
    N4       N        0.50000    0.50000    0.37450    1.000
    H56      H        0.50000    0.50000    0.43380    1.000
    N5       N        0.93380    0.00000    0.50000    1.000
    H57      H        0.96510    0.00000    0.50000    1.000
    N6       N        0.43380    0.50000    0.50000    1.000
    H58      H        0.46510    0.50000    0.50000    1.000
    N7       N        0.06620    0.00000    0.50000    1.000
    H59      H        0.03490    0.00000    0.50000    1.000
    N8       N        0.56620    0.50000    0.50000    1.000
    H60      H        0.53490    0.50000    0.50000    1.000
