# CIF file generated by openbabel 3.1.0, see https://openbabel.org
data_I
_chemical_name_common 'CAXVOO_clean'
_cell_length_a 6.9107
_cell_length_b 15.2451
_cell_length_c 15.2451
_cell_angle_alpha 62.2411
_cell_angle_beta 81.3092
_cell_angle_gamma 98.6908
_space_group_name_H-M_alt 'P 1'
_space_group_name_Hall 'P 1'
loop_
    _symmetry_equiv_pos_as_xyz
    x,y,z
loop_
    _atom_site_label
    _atom_site_type_symbol
    _atom_site_fract_x
    _atom_site_fract_y
    _atom_site_fract_z
    _atom_site_occupancy
    Fe1      Fe       0.88920    0.67920    0.58770    1.000
    Fe2      Fe       0.47690    0.58770    0.73310    1.000
    Fe3      Fe       0.21000    0.73310    0.67920    1.000
    Fe4      Fe       0.11080    0.32080    0.41230    1.000
    Fe5      Fe       0.52310    0.41230    0.26690    1.000
    Fe6      Fe       0.79000    0.26690    0.32080    1.000
    H1       H        0.64820    0.03070    0.53810    1.000
    H2       H        0.18630    0.53810    0.43120    1.000
    H3       H        0.61750    0.43120    0.03070    1.000
    H4       H        0.35180    0.96930    0.46190    1.000
    H5       H        0.81370    0.46190    0.56880    1.000
    H6       H        0.38250    0.56880    0.96930    1.000
    C1       C        0.62360    0.82510    0.61930    1.000
    C2       C        0.84130    0.91210    0.55120    1.000
    C3       C        0.03550    0.90090    0.53640    1.000
    C4       C        0.79890    0.00590    0.52620    1.000
    C5       C        0.24290    0.61930    0.55560    1.000
    C6       C        0.39250    0.55120    0.53670    1.000
    C7       C        0.57190    0.53640    0.56270    1.000
    C8       C        0.32510    0.52620    0.46790    1.000
    C9       C        0.79850    0.55560    0.82510    1.000
    C10      C        0.92920    0.53670    0.91210    1.000
    C11      C        0.13460    0.56270    0.90090    1.000
    C12      C        0.79300    0.46790    0.00590    1.000
    C13      C        0.37640    0.17490    0.38070    1.000
    C14      C        0.15870    0.08790    0.44880    1.000
    C15      C        0.96450    0.09910    0.46360    1.000
    C16      C        0.20110    0.99410    0.47380    1.000
    C17      C        0.75710    0.38070    0.44440    1.000
    C18      C        0.60750    0.44880    0.46330    1.000
    C19      C        0.42810    0.46360    0.43730    1.000
    C20      C        0.67490    0.47380    0.53210    1.000
    C21      C        0.20150    0.44440    0.17490    1.000
    C22      C        0.07080    0.46330    0.08790    1.000
    C23      C        0.86540    0.43730    0.09910    1.000
    C24      C        0.20700    0.53210    0.99410    1.000
    O1       O        0.68000    0.74770    0.64870    1.000
    O2       O        0.47160    0.83890    0.63010    1.000
    O3       O        0.07220    0.81250    0.56290    1.000
    O4       O        0.32870    0.64870    0.60360    1.000
    O5       O        0.10170    0.63010    0.53100    1.000
    O6       O        0.63510    0.56290    0.62460    1.000
    O7       O        0.93230    0.60360    0.74770    1.000
    O8       O        0.63270    0.53100    0.83890    1.000
    O9       O        0.25970    0.62460    0.81250    1.000
    O10      O        0.32000    0.25230    0.35130    1.000
    O11      O        0.52840    0.16110    0.36990    1.000
    O12      O        0.92780    0.18750    0.43710    1.000
    O13      O        0.67130    0.35130    0.39640    1.000
    O14      O        0.89830    0.36990    0.46900    1.000
    O15      O        0.36490    0.43710    0.37540    1.000
    O16      O        0.06770    0.39640    0.25230    1.000
    O17      O        0.36730    0.46900    0.16110    1.000
    O18      O        0.74030    0.37540    0.18750    1.000
